MODEL 1
REMARK VINA RESULT:      -8.6      0.000      0.000
REMARK  17 active torsions:
REMARK  status: ('A' for Active; 'I' for Inactive)
REMARK    1  A    between atoms: C4_4  and  C16_25 
REMARK    2  A    between atoms: C5_5  and  C14_21 
REMARK    3  A    between atoms: C7_8  and  O2_9 
REMARK    4  A    between atoms: O2_9  and  C8_10 
REMARK    5  A    between atoms: C9_11  and  O7_20 
REMARK    6  A    between atoms: C10_12  and  O6_19 
REMARK    7  A    between atoms: C11_13  and  O5_18 
REMARK    8  A    between atoms: C12_14  and  C13_16 
REMARK    9  A    between atoms: C13_16  and  O4_17 
REMARK   10  A    between atoms: C14_21  and  O9_23 
REMARK   11  A    between atoms: C16_25  and  C17_26 
REMARK   12  A    between atoms: C17_26  and  O11_28 
REMARK   13  A    between atoms: O11_28  and  C18_29 
REMARK   14  A    between atoms: C18_29  and  C19_30 
REMARK   15  A    between atoms: C19_30  and  C20_31 
REMARK   16  A    between atoms: C23_34  and  O13_38 
REMARK   17  A    between atoms: C24_35  and  O12_37 
ROOT
ATOM      1  C1  <0> d   1       2.261  24.497  -2.767  0.00  0.00     0.093 C 
ATOM      2  C2  <0> d   1       1.712  23.105  -2.948  0.00  0.00     0.076 C 
ATOM      3  C3  <0> d   1       0.638  22.736  -2.294  0.00  0.00    -0.214 C 
ATOM      4  C4  <0> d   1       0.054  21.344  -2.440  0.00  0.00     0.148 C 
ATOM      5  C5  <0> d   1      -0.415  20.891  -1.079  0.00  0.00    -0.302 C 
ATOM      6  C6  <0> d   1      -0.502  21.728  -0.044  0.00  0.00     0.396 C 
ATOM      7  O1  <0> d   1      -0.174  23.025  -0.078  0.00  0.00    -0.319 OA
ATOM      8  C7  <0> d   1      -0.084  23.674  -1.345  0.00  0.00     0.396 C 
ENDROOT
BRANCH   8   9
ATOM      9  O2  <0> d   1       0.652  24.891  -1.212  0.00  0.00    -0.317 OA
BRANCH   9  10
ATOM     10  C8  <0> d   1       0.722  25.385   0.127  0.00  0.00     0.288 C 
ATOM     11  O3  <0> d   1       0.222  26.724   0.168  0.00  0.00    -0.379 OA
ATOM     12  C12 <0> d   1       0.223  27.307   1.473  0.00  0.00     0.194 C 
ATOM     13  C11 <0> d   1       1.658  27.370   2.001  0.00  0.00     0.170 C 
ATOM     14  C10 <0> d   1       2.252  25.958   2.014  0.00  0.00     0.163 C 
ATOM     15  C9  <0> d   1       2.178  25.371   0.601  0.00  0.00     0.145 C 
BRANCH  12  16
ATOM     16  C13 <0> d   1      -0.356  28.722   1.400  0.00  0.00     0.225 C 
BRANCH  16  17
ATOM     17  O4  <0> d   1      -0.733  29.148   2.711  0.00  0.00    -0.567 OA
ATOM     18  H15 <0> d   1      -1.633  28.896   2.962  0.00  0.00     0.385 HD
ENDBRANCH  16  17
ENDBRANCH  12  16
BRANCH  13  19
ATOM     19  O5  <0> d   1       1.658  27.901   3.328  0.00  0.00    -0.550 OA
ATOM     20  H16 <0> d   1       1.199  28.748   3.412  0.00  0.00     0.395 HD
ENDBRANCH  13  19
BRANCH  14  21
ATOM     21  O6  <0> d   1       3.616  26.015   2.437  0.00  0.00    -0.555 OA
ATOM     22  H17 <0> d   1       3.797  25.521   3.249  0.00  0.00     0.396 HD
ENDBRANCH  14  21
BRANCH  15  23
ATOM     23  O7  <0> d   1       2.663  24.027   0.614  0.00  0.00    -0.553 OA
ATOM     24  H18 <0> d   1       3.377  23.873   1.248  0.00  0.00     0.393 HD
ENDBRANCH  15  23
ENDBRANCH   9  10
ENDBRANCH   8   9
BRANCH   4  25
ATOM     25  C16 <0> d   1      -1.129  21.379  -3.410  0.00  0.00     0.114 C 
BRANCH  25  26
ATOM     26  C17 <0> d   1      -0.691  20.862  -4.756  0.00  0.00     0.468 C 
ATOM     27  O10 <0> d   1      -1.106  21.379  -5.766  0.00  0.00    -0.499 OA
BRANCH  26  28
ATOM     28  O11 <0> d   1       0.159  19.827  -4.833  0.00  0.00    -0.353 OA
BRANCH  28  29
ATOM     29  C18 <0> d   1       1.510  20.121  -5.195  0.00  0.00     0.213 C 
BRANCH  29  30
ATOM     30  C19 <0> d   1       1.954  19.181  -6.317  0.00  0.00     0.098 C 
BRANCH  30  31
ATOM     31  C20 <0> d   1       1.393  19.664  -7.629  0.00  0.00    -0.078 A 
ATOM     32  C25 <0> d   1       2.024  20.684  -8.315  0.00  0.00     0.012 A 
ATOM     33  C24 <0> d   1       1.511  21.127  -9.525  0.00  0.00     0.083 A 
ATOM     34  C23 <0> d   1       0.356  20.548 -10.040  0.00  0.00     0.082 A 
ATOM     35  C22 <0> d   1      -0.274  19.529  -9.345  0.00  0.00     0.009 A 
ATOM     36  C21 <0> d   1       0.244  19.089  -8.141  0.00  0.00     0.029 A 
BRANCH  33  37
ATOM     37  O12 <0> d   1       2.134  22.127 -10.203  0.00  0.00    -0.487 OA
ATOM     38  H31 <0> d   1       2.620  22.743  -9.638  0.00  0.00     0.389 HD
ENDBRANCH  33  37
BRANCH  34  39
ATOM     39  O13 <0> d   1      -0.153  20.981 -11.224  0.00  0.00    -0.488 OA
ATOM     40  H32 <0> d   1      -0.925  21.558 -11.134  0.00  0.00     0.389 HD
ENDBRANCH  34  39
ENDBRANCH  30  31
ENDBRANCH  29  30
ENDBRANCH  28  29
ENDBRANCH  26  28
ENDBRANCH  25  26
ENDBRANCH   4  25
BRANCH   5  41
ATOM     41  C14 <0> d   1      -0.774  19.534  -0.896  0.00  0.00     0.525 C 
ATOM     42  O8  <0> d   1      -1.794  19.251  -0.295  0.00  0.00    -0.522 OA
BRANCH  41  43
ATOM     43  O9  <0> d   1       0.013  18.555  -1.389  0.00  0.00    -0.352 OA
ATOM     44  C15 <0> d   1      -0.576  17.262  -1.537  0.00  0.00     0.259 C 
ENDBRANCH  41  43
ENDBRANCH   5  41
TORSDOF 17
ENDMDL
MODEL 2
REMARK VINA RESULT:      -8.4      2.864      7.728
REMARK  17 active torsions:
REMARK  status: ('A' for Active; 'I' for Inactive)
REMARK    1  A    between atoms: C4_4  and  C16_25 
REMARK    2  A    between atoms: C5_5  and  C14_21 
REMARK    3  A    between atoms: C7_8  and  O2_9 
REMARK    4  A    between atoms: O2_9  and  C8_10 
REMARK    5  A    between atoms: C9_11  and  O7_20 
REMARK    6  A    between atoms: C10_12  and  O6_19 
REMARK    7  A    between atoms: C11_13  and  O5_18 
REMARK    8  A    between atoms: C12_14  and  C13_16 
REMARK    9  A    between atoms: C13_16  and  O4_17 
REMARK   10  A    between atoms: C14_21  and  O9_23 
REMARK   11  A    between atoms: C16_25  and  C17_26 
REMARK   12  A    between atoms: C17_26  and  O11_28 
REMARK   13  A    between atoms: O11_28  and  C18_29 
REMARK   14  A    between atoms: C18_29  and  C19_30 
REMARK   15  A    between atoms: C19_30  and  C20_31 
REMARK   16  A    between atoms: C23_34  and  O13_38 
REMARK   17  A    between atoms: C24_35  and  O12_37 
ROOT
ATOM      1  C1  <0> d   1      -1.961  17.524  -2.532  0.00  0.00     0.093 C 
ATOM      2  C2  <0> d   1      -1.561  18.976  -2.476  0.00  0.00     0.076 C 
ATOM      3  C3  <0> d   1      -0.758  19.398  -1.531  0.00  0.00    -0.214 C 
ATOM      4  C4  <0> d   1      -0.334  20.851  -1.432  0.00  0.00     0.148 C 
ATOM      5  C5  <0> d   1      -0.308  21.229   0.028  0.00  0.00    -0.302 C 
ATOM      6  C6  <0> d   1      -0.399  20.320   0.999  0.00  0.00     0.396 C 
ATOM      7  O1  <0> d   1      -0.541  19.002   0.804  0.00  0.00    -0.319 OA
ATOM      8  C7  <0> d   1      -0.206  18.461  -0.472  0.00  0.00     0.396 C 
ENDROOT
BRANCH   8   9
ATOM      9  O2  <0> d   1      -0.793  17.166  -0.616  0.00  0.00    -0.317 OA
BRANCH   9  10
ATOM     10  C8  <0> d   1      -0.913  16.443   0.610  0.00  0.00     0.288 C 
ATOM     11  O3  <0> d   1      -0.192  15.212   0.511  0.00  0.00    -0.379 OA
ATOM     12  C12 <0> d   1      -0.225  14.419   1.698  0.00  0.00     0.194 C 
ATOM     13  C11 <0> d   1      -1.675  14.041   2.018  0.00  0.00     0.170 C 
ATOM     14  C10 <0> d   1      -2.505  15.320   2.170  0.00  0.00     0.163 C 
ATOM     15  C9  <0> d   1      -2.389  16.147   0.886  0.00  0.00     0.145 C 
BRANCH  12  16
ATOM     16  C13 <0> d   1       0.597  13.146   1.485  0.00  0.00     0.225 C 
BRANCH  16  17
ATOM     17  O4  <0> d   1      -0.254  12.106   0.999  0.00  0.00    -0.567 OA
ATOM     18  H15 <0> d   1      -0.057  11.828   0.094  0.00  0.00     0.385 HD
ENDBRANCH  16  17
ENDBRANCH  12  16
BRANCH  13  19
ATOM     19  O5  <0> d   1      -1.718  13.295   3.236  0.00  0.00    -0.550 OA
ATOM     20  H16 <0> d   1      -2.060  13.793   3.990  0.00  0.00     0.395 HD
ENDBRANCH  13  19
BRANCH  14  21
ATOM     21  O6  <0> d   1      -3.874  14.978   2.398  0.00  0.00    -0.555 OA
ATOM     22  H17 <0> d   1      -4.433  15.730   2.637  0.00  0.00     0.396 HD
ENDBRANCH  14  21
BRANCH  15  23
ATOM     23  O7  <0> d   1      -3.102  17.376   1.042  0.00  0.00    -0.553 OA
ATOM     24  H18 <0> d   1      -3.639  17.619   0.276  0.00  0.00     0.393 HD
ENDBRANCH  15  23
ENDBRANCH   9  10
ENDBRANCH   8   9
BRANCH   4  25
ATOM     25  C16 <0> d   1       1.061  21.024  -2.037  0.00  0.00     0.114 C 
BRANCH  25  26
ATOM     26  C17 <0> d   1       1.003  22.034  -3.154  0.00  0.00     0.468 C 
ATOM     27  O10 <0> d   1       1.582  23.089  -3.045  0.00  0.00    -0.499 OA
BRANCH  26  28
ATOM     28  O11 <0> d   1       0.308  21.762  -4.269  0.00  0.00    -0.353 OA
BRANCH  28  29
ATOM     29  C18 <0> d   1       0.806  20.717  -5.106  0.00  0.00     0.213 C 
BRANCH  29  30
ATOM     30  C19 <0> d   1      -0.367  19.993  -5.770  0.00  0.00     0.098 C 
BRANCH  30  31
ATOM     31  C20 <0> d   1      -0.282  20.165  -7.265  0.00  0.00    -0.078 A 
ATOM     32  C25 <0> d   1      -1.223  19.568  -8.082  0.00  0.00     0.012 A 
ATOM     33  C24 <0> d   1      -1.149  19.730  -9.457  0.00  0.00     0.083 A 
ATOM     34  C23 <0> d   1      -0.121  20.483 -10.011  0.00  0.00     0.082 A 
ATOM     35  C22 <0> d   1       0.823  21.075  -9.186  0.00  0.00     0.009 A 
ATOM     36  C21 <0> d   1       0.742  20.914  -7.815  0.00  0.00     0.029 A 
BRANCH  33  37
ATOM     37  O12 <0> d   1      -2.079  19.147 -10.262  0.00  0.00    -0.487 OA
ATOM     38  H31 <0> d   1      -2.814  19.729 -10.498  0.00  0.00     0.389 HD
ENDBRANCH  33  37
BRANCH  34  39
ATOM     39  O13 <0> d   1      -0.041  20.641 -11.359  0.00  0.00    -0.488 OA
ATOM     40  H32 <0> d   1       0.678  20.142 -11.772  0.00  0.00     0.389 HD
ENDBRANCH  34  39
ENDBRANCH  30  31
ENDBRANCH  29  30
ENDBRANCH  28  29
ENDBRANCH  26  28
ENDBRANCH  25  26
ENDBRANCH   4  25
BRANCH   5  41
ATOM     41  C14 <0> d   1      -0.184  22.595   0.378  0.00  0.00     0.525 C 
ATOM     42  O8  <0> d   1       0.592  22.930   1.254  0.00  0.00    -0.522 OA
BRANCH  41  43
ATOM     43  O9  <0> d   1      -0.924  23.526  -0.260  0.00  0.00    -0.352 OA
ATOM     44  C15 <0> d   1      -0.283  24.764  -0.570  0.00  0.00     0.259 C 
ENDBRANCH  41  43
ENDBRANCH   5  41
TORSDOF 17
ENDMDL
MODEL 3
REMARK VINA RESULT:      -8.3      3.349      7.910
REMARK  17 active torsions:
REMARK  status: ('A' for Active; 'I' for Inactive)
REMARK    1  A    between atoms: C4_4  and  C16_25 
REMARK    2  A    between atoms: C5_5  and  C14_21 
REMARK    3  A    between atoms: C7_8  and  O2_9 
REMARK    4  A    between atoms: O2_9  and  C8_10 
REMARK    5  A    between atoms: C9_11  and  O7_20 
REMARK    6  A    between atoms: C10_12  and  O6_19 
REMARK    7  A    between atoms: C11_13  and  O5_18 
REMARK    8  A    between atoms: C12_14  and  C13_16 
REMARK    9  A    between atoms: C13_16  and  O4_17 
REMARK   10  A    between atoms: C14_21  and  O9_23 
REMARK   11  A    between atoms: C16_25  and  C17_26 
REMARK   12  A    between atoms: C17_26  and  O11_28 
REMARK   13  A    between atoms: O11_28  and  C18_29 
REMARK   14  A    between atoms: C18_29  and  C19_30 
REMARK   15  A    between atoms: C19_30  and  C20_31 
REMARK   16  A    between atoms: C23_34  and  O13_38 
REMARK   17  A    between atoms: C24_35  and  O12_37 
ROOT
ATOM      1  C1  <0> d   1      -2.253  16.376  -2.715  0.00  0.00     0.093 C 
ATOM      2  C2  <0> d   1      -1.746  17.776  -2.944  0.00  0.00     0.076 C 
ATOM      3  C3  <0> d   1      -0.711  18.217  -2.272  0.00  0.00    -0.214 C 
ATOM      4  C4  <0> d   1      -0.171  19.620  -2.465  0.00  0.00     0.148 C 
ATOM      5  C5  <0> d   1       0.231  20.155  -1.113  0.00  0.00    -0.302 C 
ATOM      6  C6  <0> d   1       0.309  19.373  -0.035  0.00  0.00     0.396 C 
ATOM      7  O1  <0> d   1       0.029  18.063  -0.016  0.00  0.00    -0.319 OA
ATOM      8  C7  <0> d   1       0.008  17.352  -1.253  0.00  0.00     0.396 C 
ENDROOT
BRANCH   8   9
ATOM      9  O2  <0> d   1      -0.689  16.116  -1.086  0.00  0.00    -0.317 OA
BRANCH   9  10
ATOM     10  C8  <0> d   1      -0.765  15.669   0.269  0.00  0.00     0.288 C 
ATOM     11  O3  <0> d   1      -0.240  14.342   0.363  0.00  0.00    -0.379 OA
ATOM     12  C12 <0> d   1      -0.245  13.806   1.687  0.00  0.00     0.194 C 
ATOM     13  C11 <0> d   1      -1.685  13.735   2.204  0.00  0.00     0.170 C 
ATOM     14  C10 <0> d   1      -2.304  15.136   2.160  0.00  0.00     0.163 C 
ATOM     15  C9  <0> d   1      -2.225  15.673   0.728  0.00  0.00     0.145 C 
BRANCH  12  16
ATOM     16  C13 <0> d   1       0.360  12.400   1.671  0.00  0.00     0.225 C 
BRANCH  16  17
ATOM     17  O4  <0> d   1       0.818  12.065   2.983  0.00  0.00    -0.567 OA
ATOM     18  H15 <0> d   1       0.490  12.655   3.676  0.00  0.00     0.385 HD
ENDBRANCH  16  17
ENDBRANCH  12  16
BRANCH  13  19
ATOM     19  O5  <0> d   1      -1.688  13.252   3.548  0.00  0.00    -0.550 OA
ATOM     20  H16 <0> d   1      -0.945  13.566   4.081  0.00  0.00     0.395 HD
ENDBRANCH  13  19
BRANCH  14  21
ATOM     21  O6  <0> d   1      -3.670  15.069   2.572  0.00  0.00    -0.555 OA
ATOM     22  H17 <0> d   1      -3.890  14.275   3.080  0.00  0.00     0.396 HD
ENDBRANCH  14  21
BRANCH  15  23
ATOM     23  O7  <0> d   1      -2.734  17.008   0.688  0.00  0.00    -0.553 OA
ATOM     24  H18 <0> d   1      -2.141  17.667   1.073  0.00  0.00     0.393 HD
ENDBRANCH  15  23
ENDBRANCH   9  10
ENDBRANCH   8   9
BRANCH   4  25
ATOM     25  C16 <0> d   1       1.048  19.582  -3.390  0.00  0.00     0.114 C 
BRANCH  25  26
ATOM     26  C17 <0> d   1       0.627  19.948  -4.790  0.00  0.00     0.468 C 
ATOM     27  O10 <0> d   1       1.446  19.973  -5.679  0.00  0.00    -0.499 OA
BRANCH  26  28
ATOM     28  O11 <0> d   1      -0.654  20.247  -5.050  0.00  0.00    -0.353 OA
BRANCH  28  29
ATOM     29  C18 <0> d   1      -1.002  21.632  -5.095  0.00  0.00     0.213 C 
BRANCH  29  30
ATOM     30  C19 <0> d   1      -2.035  21.864  -6.199  0.00  0.00     0.098 C 
BRANCH  30  31
ATOM     31  C20 <0> d   1      -1.431  21.511  -7.534  0.00  0.00    -0.078 A 
ATOM     32  C25 <0> d   1      -0.242  22.093  -7.929  0.00  0.00     0.012 A 
ATOM     33  C24 <0> d   1       0.318  21.766  -9.154  0.00  0.00     0.083 A 
ATOM     34  C23 <0> d   1      -0.326  20.859  -9.989  0.00  0.00     0.082 A 
ATOM     35  C22 <0> d   1      -1.521  20.282  -9.589  0.00  0.00     0.009 A 
ATOM     36  C21 <0> d   1      -2.072  20.609  -8.364  0.00  0.00     0.029 A 
BRANCH  33  37
ATOM     37  O12 <0> d   1       1.491  22.335  -9.540  0.00  0.00    -0.487 OA
ATOM     38  H31 <0> d   1       1.610  22.379 -10.499  0.00  0.00     0.389 HD
ENDBRANCH  33  37
BRANCH  34  39
ATOM     39  O13 <0> d   1       0.216  20.538 -11.193  0.00  0.00    -0.488 OA
ATOM     40  H32 <0> d   1       0.210  21.263 -11.834  0.00  0.00     0.389 HD
ENDBRANCH  34  39
ENDBRANCH  30  31
ENDBRANCH  29  30
ENDBRANCH  28  29
ENDBRANCH  26  28
ENDBRANCH  25  26
ENDBRANCH   4  25
BRANCH   5  41
ATOM     41  C14 <0> d   1       0.535  21.531  -0.984  0.00  0.00     0.525 C 
ATOM     42  O8  <0> d   1      -0.362  22.341  -0.840  0.00  0.00    -0.522 OA
BRANCH  41  43
ATOM     43  O9  <0> d   1       1.819  21.945  -1.022  0.00  0.00    -0.352 OA
ATOM     44  C15 <0> d   1       2.188  22.815  -2.094  0.00  0.00     0.259 C 
ENDBRANCH  41  43
ENDBRANCH   5  41
TORSDOF 17
ENDMDL
MODEL 4
REMARK VINA RESULT:      -7.9     19.323     25.902
REMARK  17 active torsions:
REMARK  status: ('A' for Active; 'I' for Inactive)
REMARK    1  A    between atoms: C4_4  and  C16_25 
REMARK    2  A    between atoms: C5_5  and  C14_21 
REMARK    3  A    between atoms: C7_8  and  O2_9 
REMARK    4  A    between atoms: O2_9  and  C8_10 
REMARK    5  A    between atoms: C9_11  and  O7_20 
REMARK    6  A    between atoms: C10_12  and  O6_19 
REMARK    7  A    between atoms: C11_13  and  O5_18 
REMARK    8  A    between atoms: C12_14  and  C13_16 
REMARK    9  A    between atoms: C13_16  and  O4_17 
REMARK   10  A    between atoms: C14_21  and  O9_23 
REMARK   11  A    between atoms: C16_25  and  C17_26 
REMARK   12  A    between atoms: C17_26  and  O11_28 
REMARK   13  A    between atoms: O11_28  and  C18_29 
REMARK   14  A    between atoms: C18_29  and  C19_30 
REMARK   15  A    between atoms: C19_30  and  C20_31 
REMARK   16  A    between atoms: C23_34  and  O13_38 
REMARK   17  A    between atoms: C24_35  and  O12_37 
ROOT
ATOM      1  C1  <0> d   1       2.694  18.422 -26.503  0.00  0.00     0.093 C 
ATOM      2  C2  <0> d   1       2.301  18.815 -27.903  0.00  0.00     0.076 C 
ATOM      3  C3  <0> d   1       1.227  19.538 -28.104  0.00  0.00    -0.214 C 
ATOM      4  C4  <0> d   1       0.791  19.951 -29.496  0.00  0.00     0.148 C 
ATOM      5  C5  <0> d   1      -0.713  19.857 -29.560  0.00  0.00    -0.302 C 
ATOM      6  C6  <0> d   1      -1.460  19.688 -28.468  0.00  0.00     0.396 C 
ATOM      7  O1  <0> d   1      -0.982  19.564 -27.224  0.00  0.00    -0.319 OA
ATOM      8  C7  <0> d   1       0.349  20.002 -26.957  0.00  0.00     0.396 C 
ENDROOT
BRANCH   8   9
ATOM      9  O2  <0> d   1       0.809  19.430 -25.731  0.00  0.00    -0.317 OA
BRANCH   9  10
ATOM     10  C8  <0> d   1       0.423  20.163 -24.566  0.00  0.00     0.288 C 
ATOM     11  O3  <0> d   1       1.587  20.500 -23.808  0.00  0.00    -0.379 OA
ATOM     12  C12 <0> d   1       1.316  21.260 -22.629  0.00  0.00     0.194 C 
ATOM     13  C11 <0> d   1       0.415  20.447 -21.694  0.00  0.00     0.170 C 
ATOM     14  C10 <0> d   1      -0.873  20.075 -22.435  0.00  0.00     0.163 C 
ATOM     15  C9  <0> d   1      -0.513  19.306 -23.710  0.00  0.00     0.145 C 
BRANCH  12  16
ATOM     16  C13 <0> d   1       2.630  21.584 -21.916  0.00  0.00     0.225 C 
BRANCH  16  17
ATOM     17  O4  <0> d   1       2.868  20.614 -20.894  0.00  0.00    -0.567 OA
ATOM     18  H15 <0> d   1       3.525  19.945 -21.133  0.00  0.00     0.385 HD
ENDBRANCH  16  17
ENDBRANCH  12  16
BRANCH  13  19
ATOM     19  O5  <0> d   1       0.095  21.226 -20.540  0.00  0.00    -0.550 OA
ATOM     20  H16 <0> d   1       0.214  20.756 -19.704  0.00  0.00     0.395 HD
ENDBRANCH  13  19
BRANCH  14  21
ATOM     21  O6  <0> d   1      -1.688  19.255 -21.596  0.00  0.00    -0.555 OA
ATOM     22  H17 <0> d   1      -2.288  19.753 -21.023  0.00  0.00     0.396 HD
ENDBRANCH  14  21
BRANCH  15  23
ATOM     23  O7  <0> d   1      -1.702  19.016 -24.447  0.00  0.00    -0.553 OA
ATOM     24  H18 <0> d   1      -2.025  19.755 -24.980  0.00  0.00     0.393 HD
ENDBRANCH  15  23
ENDBRANCH   9  10
ENDBRANCH   8   9
BRANCH   4  25
ATOM     25  C16 <0> d   1       1.232  21.391 -29.770  0.00  0.00     0.114 C 
BRANCH  25  26
ATOM     26  C17 <0> d   1       1.831  21.479 -31.150  0.00  0.00     0.468 C 
ATOM     27  O10 <0> d   1       1.436  22.316 -31.928  0.00  0.00    -0.499 OA
BRANCH  26  28
ATOM     28  O11 <0> d   1       2.803  20.629 -31.516  0.00  0.00    -0.353 OA
BRANCH  28  29
ATOM     29  C18 <0> d   1       2.592  19.879 -32.714  0.00  0.00     0.213 C 
BRANCH  29  30
ATOM     30  C19 <0> d   1       3.407  18.586 -32.656  0.00  0.00     0.098 C 
BRANCH  30  31
ATOM     31  C20 <0> d   1       2.528  17.459 -32.178  0.00  0.00    -0.078 A 
ATOM     32  C25 <0> d   1       1.502  16.996 -32.980  0.00  0.00     0.012 A 
ATOM     33  C24 <0> d   1       0.696  15.957 -32.543  0.00  0.00     0.083 A 
ATOM     34  C23 <0> d   1       0.916  15.389 -31.293  0.00  0.00     0.082 A 
ATOM     35  C22 <0> d   1       1.943  15.861 -30.491  0.00  0.00     0.009 A 
ATOM     36  C21 <0> d   1       2.747  16.895 -30.934  0.00  0.00     0.029 A 
BRANCH  33  37
ATOM     37  O12 <0> d   1      -0.311  15.497 -33.333  0.00  0.00    -0.487 OA
ATOM     38  H31 <0> d   1      -0.009  14.995 -34.102  0.00  0.00     0.389 HD
ENDBRANCH  33  37
BRANCH  34  39
ATOM     39  O13 <0> d   1       0.125  14.372 -30.858  0.00  0.00    -0.488 OA
ATOM     40  H32 <0> d   1      -0.532  14.080 -31.504  0.00  0.00     0.389 HD
ENDBRANCH  34  39
ENDBRANCH  30  31
ENDBRANCH  29  30
ENDBRANCH  28  29
ENDBRANCH  26  28
ENDBRANCH  25  26
ENDBRANCH   4  25
BRANCH   5  41
ATOM     41  C14 <0> d   1      -1.352  19.952 -30.820  0.00  0.00     0.525 C 
ATOM     42  O8  <0> d   1      -0.941  19.297 -31.760  0.00  0.00    -0.522 OA
BRANCH  41  43
ATOM     43  O9  <0> d   1      -2.415  20.767 -30.978  0.00  0.00    -0.352 OA
ATOM     44  C15 <0> d   1      -2.149  22.168 -31.068  0.00  0.00     0.259 C 
ENDBRANCH  41  43
ENDBRANCH   5  41
TORSDOF 17
ENDMDL
MODEL 5
REMARK VINA RESULT:      -7.9     19.801     26.371
REMARK  17 active torsions:
REMARK  status: ('A' for Active; 'I' for Inactive)
REMARK    1  A    between atoms: C4_4  and  C16_25 
REMARK    2  A    between atoms: C5_5  and  C14_21 
REMARK    3  A    between atoms: C7_8  and  O2_9 
REMARK    4  A    between atoms: O2_9  and  C8_10 
REMARK    5  A    between atoms: C9_11  and  O7_20 
REMARK    6  A    between atoms: C10_12  and  O6_19 
REMARK    7  A    between atoms: C11_13  and  O5_18 
REMARK    8  A    between atoms: C12_14  and  C13_16 
REMARK    9  A    between atoms: C13_16  and  O4_17 
REMARK   10  A    between atoms: C14_21  and  O9_23 
REMARK   11  A    between atoms: C16_25  and  C17_26 
REMARK   12  A    between atoms: C17_26  and  O11_28 
REMARK   13  A    between atoms: O11_28  and  C18_29 
REMARK   14  A    between atoms: C18_29  and  C19_30 
REMARK   15  A    between atoms: C19_30  and  C20_31 
REMARK   16  A    between atoms: C23_34  and  O13_38 
REMARK   17  A    between atoms: C24_35  and  O12_37 
ROOT
ATOM      1  C1  <0> d   1      -1.937  22.147 -27.762  0.00  0.00     0.093 C 
ATOM      2  C2  <0> d   1      -1.341  21.537 -29.005  0.00  0.00     0.076 C 
ATOM      3  C3  <0> d   1      -0.643  20.431 -28.921  0.00  0.00    -0.214 C 
ATOM      4  C4  <0> d   1      -0.019  19.786 -30.144  0.00  0.00     0.148 C 
ATOM      5  C5  <0> d   1       1.340  19.263 -29.752  0.00  0.00    -0.302 C 
ATOM      6  C6  <0> d   1       1.732  19.189 -28.480  0.00  0.00     0.396 C 
ATOM      7  O1  <0> d   1       1.000  19.579 -27.428  0.00  0.00    -0.319 OA
ATOM      8  C7  <0> d   1      -0.408  19.731 -27.595  0.00  0.00     0.396 C 
ENDROOT
BRANCH   8   9
ATOM      9  O2  <0> d   1      -0.938  20.520 -26.529  0.00  0.00    -0.317 OA
BRANCH   9  10
ATOM     10  C8  <0> d   1      -0.156  20.482 -25.333  0.00  0.00     0.288 C 
ATOM     11  O3  <0> d   1      -1.001  20.181 -24.221  0.00  0.00    -0.379 OA
ATOM     12  C12 <0> d   1      -0.312  20.093 -22.972  0.00  0.00     0.194 C 
ATOM     13  C11 <0> d   1       0.346  21.439 -22.658  0.00  0.00     0.170 C 
ATOM     14  C10 <0> d   1       1.295  21.814 -23.801  0.00  0.00     0.163 C 
ATOM     15  C9  <0> d   1       0.508  21.844 -25.115  0.00  0.00     0.145 C 
BRANCH  12  16
ATOM     16  C13 <0> d   1      -1.307  19.741 -21.863  0.00  0.00     0.225 C 
BRANCH  16  17
ATOM     17  O4  <0> d   1      -1.726  20.938 -21.203  0.00  0.00    -0.567 OA
ATOM     18  H15 <0> d   1      -2.650  20.925 -20.917  0.00  0.00     0.385 HD
ENDBRANCH  16  17
ENDBRANCH  12  16
BRANCH  13  19
ATOM     19  O5  <0> d   1       1.083  21.339 -21.438  0.00  0.00    -0.550 OA
ATOM     20  H16 <0> d   1       0.699  20.727 -20.796  0.00  0.00     0.395 HD
ENDBRANCH  13  19
BRANCH  14  21
ATOM     21  O6  <0> d   1       1.860  23.102 -23.552  0.00  0.00    -0.555 OA
ATOM     22  H17 <0> d   1       1.367  23.832 -23.954  0.00  0.00     0.396 HD
ENDBRANCH  14  21
BRANCH  15  23
ATOM     23  O7  <0> d   1       1.396  22.122 -26.199  0.00  0.00    -0.553 OA
ATOM     24  H18 <0> d   1       1.780  21.333 -26.606  0.00  0.00     0.393 HD
ENDBRANCH  15  23
ENDBRANCH   9  10
ENDBRANCH   8   9
BRANCH   4  25
ATOM     25  C16 <0> d   1      -0.901  18.630 -30.624  0.00  0.00     0.114 C 
BRANCH  25  26
ATOM     26  C17 <0> d   1      -1.404  18.925 -32.013  0.00  0.00     0.468 C 
ATOM     27  O10 <0> d   1      -0.929  18.349 -32.963  0.00  0.00    -0.499 OA
BRANCH  26  28
ATOM     28  O11 <0> d   1      -2.380  19.827 -32.196  0.00  0.00    -0.353 OA
BRANCH  28  29
ATOM     29  C18 <0> d   1      -1.996  21.104 -32.712  0.00  0.00     0.213 C 
BRANCH  29  30
ATOM     30  C19 <0> d   1      -3.034  22.151 -32.304  0.00  0.00     0.098 C 
BRANCH  30  31
ATOM     31  C20 <0> d   1      -2.335  23.439 -31.951  0.00  0.00    -0.078 A 
ATOM     32  C25 <0> d   1      -1.258  23.868 -32.702  0.00  0.00     0.012 A 
ATOM     33  C24 <0> d   1      -0.617  25.055 -32.381  0.00  0.00     0.083 A 
ATOM     34  C23 <0> d   1      -1.055  25.806 -31.296  0.00  0.00     0.082 A 
ATOM     35  C22 <0> d   1      -2.134  25.368 -30.544  0.00  0.00     0.009 A 
ATOM     36  C21 <0> d   1      -2.771  24.186 -30.871  0.00  0.00     0.029 A 
BRANCH  33  37
ATOM     37  O12 <0> d   1       0.440  25.480 -33.123  0.00  0.00    -0.487 OA
ATOM     38  H31 <0> d   1       0.768  26.355 -32.875  0.00  0.00     0.389 HD
ENDBRANCH  33  37
BRANCH  34  39
ATOM     39  O13 <0> d   1      -0.428  26.969 -30.974  0.00  0.00    -0.488 OA
ATOM     40  H32 <0> d   1       0.163  26.899 -30.211  0.00  0.00     0.389 HD
ENDBRANCH  34  39
ENDBRANCH  30  31
ENDBRANCH  29  30
ENDBRANCH  28  29
ENDBRANCH  26  28
ENDBRANCH  25  26
ENDBRANCH   4  25
BRANCH   5  41
ATOM     41  C14 <0> d   1       2.227  18.836 -30.769  0.00  0.00     0.525 C 
ATOM     42  O8  <0> d   1       2.480  17.652 -30.897  0.00  0.00    -0.522 OA
BRANCH  41  43
ATOM     43  O9  <0> d   1       2.793  19.740 -31.595  0.00  0.00    -0.352 OA
ATOM     44  C15 <0> d   1       2.411  19.690 -32.971  0.00  0.00     0.259 C 
ENDBRANCH  41  43
ENDBRANCH   5  41
TORSDOF 17
ENDMDL
MODEL 6
REMARK VINA RESULT:      -7.8     19.659     26.353
REMARK  17 active torsions:
REMARK  status: ('A' for Active; 'I' for Inactive)
REMARK    1  A    between atoms: C4_4  and  C16_25 
REMARK    2  A    between atoms: C5_5  and  C14_21 
REMARK    3  A    between atoms: C7_8  and  O2_9 
REMARK    4  A    between atoms: O2_9  and  C8_10 
REMARK    5  A    between atoms: C9_11  and  O7_20 
REMARK    6  A    between atoms: C10_12  and  O6_19 
REMARK    7  A    between atoms: C11_13  and  O5_18 
REMARK    8  A    between atoms: C12_14  and  C13_16 
REMARK    9  A    between atoms: C13_16  and  O4_17 
REMARK   10  A    between atoms: C14_21  and  O9_23 
REMARK   11  A    between atoms: C16_25  and  C17_26 
REMARK   12  A    between atoms: C17_26  and  O11_28 
REMARK   13  A    between atoms: O11_28  and  C18_29 
REMARK   14  A    between atoms: C18_29  and  C19_30 
REMARK   15  A    between atoms: C19_30  and  C20_31 
REMARK   16  A    between atoms: C23_34  and  O13_38 
REMARK   17  A    between atoms: C24_35  and  O12_37 
ROOT
ATOM      1  C1  <0> d   1       1.858  19.283 -27.918  0.00  0.00     0.093 C 
ATOM      2  C2  <0> d   1       1.308  20.031 -29.105  0.00  0.00     0.076 C 
ATOM      3  C3  <0> d   1       0.621  21.132 -28.924  0.00  0.00    -0.214 C 
ATOM      4  C4  <0> d   1       0.044  21.913 -30.089  0.00  0.00     0.148 C 
ATOM      5  C5  <0> d   1      -1.321  22.412 -29.684  0.00  0.00    -0.302 C 
ATOM      6  C6  <0> d   1      -1.752  22.354 -28.423  0.00  0.00     0.396 C 
ATOM      7  O1  <0> d   1      -1.059  21.844 -27.398  0.00  0.00    -0.319 OA
ATOM      8  C7  <0> d   1       0.353  21.690 -27.538  0.00  0.00     0.396 C 
ENDROOT
BRANCH   8   9
ATOM      9  O2  <0> d   1       0.840  20.783 -26.548  0.00  0.00    -0.317 OA
BRANCH   9  10
ATOM     10  C8  <0> d   1       0.088  20.791 -25.332  0.00  0.00     0.288 C 
ATOM     11  O3  <0> d   1       0.958  21.082 -24.236  0.00  0.00    -0.379 OA
ATOM     12  C12 <0> d   1       0.300  21.140 -22.969  0.00  0.00     0.194 C 
ATOM     13  C11 <0> d   1      -0.337  19.782 -22.662  0.00  0.00     0.170 C 
ATOM     14  C10 <0> d   1      -1.310  19.417 -23.787  0.00  0.00     0.163 C 
ATOM     15  C9  <0> d   1      -0.557  19.419 -25.121  0.00  0.00     0.145 C 
BRANCH  12  16
ATOM     16  C13 <0> d   1       1.319  21.483 -21.879  0.00  0.00     0.225 C 
BRANCH  16  17
ATOM     17  O4  <0> d   1       1.640  20.302 -21.140  0.00  0.00    -0.567 OA
ATOM     18  H15 <0> d   1       1.319  20.311 -20.228  0.00  0.00     0.385 HD
ENDBRANCH  16  17
ENDBRANCH  12  16
BRANCH  13  19
ATOM     19  O5  <0> d   1      -1.043  19.853 -21.422  0.00  0.00    -0.550 OA
ATOM     20  H16 <0> d   1      -0.470  19.919 -20.646  0.00  0.00     0.395 HD
ENDBRANCH  13  19
BRANCH  14  21
ATOM     21  O6  <0> d   1      -1.856  18.119 -23.547  0.00  0.00    -0.555 OA
ATOM     22  H17 <0> d   1      -2.194  17.994 -22.649  0.00  0.00     0.396 HD
ENDBRANCH  14  21
BRANCH  15  23
ATOM     23  O7  <0> d   1      -1.470  19.151 -26.187  0.00  0.00    -0.553 OA
ATOM     24  H18 <0> d   1      -1.158  18.483 -26.813  0.00  0.00     0.393 HD
ENDBRANCH  15  23
ENDBRANCH   9  10
ENDBRANCH   8   9
BRANCH   4  25
ATOM     25  C16 <0> d   1       0.954  23.101 -30.415  0.00  0.00     0.114 C 
BRANCH  25  26
ATOM     26  C17 <0> d   1       1.416  23.001 -31.845  0.00  0.00     0.468 C 
ATOM     27  O10 <0> d   1       0.859  23.640 -32.706  0.00  0.00    -0.499 OA
BRANCH  26  28
ATOM     28  O11 <0> d   1       2.447  22.204 -32.164  0.00  0.00    -0.353 OA
BRANCH  28  29
ATOM     29  C18 <0> d   1       2.189  21.147 -33.089  0.00  0.00     0.213 C 
BRANCH  29  30
ATOM     30  C19 <0> d   1       2.843  19.858 -32.588  0.00  0.00     0.098 C 
BRANCH  30  31
ATOM     31  C20 <0> d   1       1.777  18.830 -32.307  0.00  0.00    -0.078 A 
ATOM     32  C25 <0> d   1       2.119  17.623 -31.728  0.00  0.00     0.012 A 
ATOM     33  C24 <0> d   1       1.139  16.679 -31.465  0.00  0.00     0.083 A 
ATOM     34  C23 <0> d   1      -0.186  16.945 -31.794  0.00  0.00     0.082 A 
ATOM     35  C22 <0> d   1      -0.521  18.156 -32.379  0.00  0.00     0.009 A 
ATOM     36  C21 <0> d   1       0.460  19.095 -32.635  0.00  0.00     0.029 A 
BRANCH  33  37
ATOM     37  O12 <0> d   1       1.474  15.492 -30.890  0.00  0.00    -0.487 OA
ATOM     38  H31 <0> d   1       1.359  15.473 -29.930  0.00  0.00     0.389 HD
ENDBRANCH  33  37
BRANCH  34  39
ATOM     39  O13 <0> d   1      -1.150  16.021 -31.541  0.00  0.00    -0.488 OA
ATOM     40  H32 <0> d   1      -1.660  15.760 -32.321  0.00  0.00     0.389 HD
ENDBRANCH  34  39
ENDBRANCH  30  31
ENDBRANCH  29  30
ENDBRANCH  28  29
ENDBRANCH  26  28
ENDBRANCH  25  26
ENDBRANCH   4  25
BRANCH   5  41
ATOM     41  C14 <0> d   1      -2.171  22.958 -30.675  0.00  0.00     0.525 C 
ATOM     42  O8  <0> d   1      -2.357  22.355 -31.716  0.00  0.00    -0.522 OA
BRANCH  41  43
ATOM     43  O9  <0> d   1      -2.774  24.147 -30.467  0.00  0.00    -0.352 OA
ATOM     44  C15 <0> d   1      -2.003  25.321 -30.732  0.00  0.00     0.259 C 
ENDBRANCH  41  43
ENDBRANCH   5  41
TORSDOF 17
ENDMDL
MODEL 7
REMARK VINA RESULT:      -7.8      3.245      8.017
REMARK  17 active torsions:
REMARK  status: ('A' for Active; 'I' for Inactive)
REMARK    1  A    between atoms: C4_4  and  C16_25 
REMARK    2  A    between atoms: C5_5  and  C14_21 
REMARK    3  A    between atoms: C7_8  and  O2_9 
REMARK    4  A    between atoms: O2_9  and  C8_10 
REMARK    5  A    between atoms: C9_11  and  O7_20 
REMARK    6  A    between atoms: C10_12  and  O6_19 
REMARK    7  A    between atoms: C11_13  and  O5_18 
REMARK    8  A    between atoms: C12_14  and  C13_16 
REMARK    9  A    between atoms: C13_16  and  O4_17 
REMARK   10  A    between atoms: C14_21  and  O9_23 
REMARK   11  A    between atoms: C16_25  and  C17_26 
REMARK   12  A    between atoms: C17_26  and  O11_28 
REMARK   13  A    between atoms: O11_28  and  C18_29 
REMARK   14  A    between atoms: C18_29  and  C19_30 
REMARK   15  A    between atoms: C19_30  and  C20_31 
REMARK   16  A    between atoms: C23_34  and  O13_38 
REMARK   17  A    between atoms: C24_35  and  O12_37 
ROOT
ATOM      1  C1  <0> d   1      -3.661  18.654   1.000  0.00  0.00     0.093 C 
ATOM      2  C2  <0> d   1      -2.691  19.533   0.253  0.00  0.00     0.076 C 
ATOM      3  C3  <0> d   1      -1.406  19.279   0.302  0.00  0.00    -0.214 C 
ATOM      4  C4  <0> d   1      -0.394  20.140  -0.429  0.00  0.00     0.148 C 
ATOM      5  C5  <0> d   1       0.816  20.290   0.459  0.00  0.00    -0.302 C 
ATOM      6  C6  <0> d   1       0.988  19.551   1.556  0.00  0.00     0.396 C 
ATOM      7  O1  <0> d   1       0.124  18.630   2.002  0.00  0.00    -0.319 OA
ATOM      8  C7  <0> d   1      -0.850  18.113   1.098  0.00  0.00     0.396 C 
ENDROOT
BRANCH   8   9
ATOM      9  O2  <0> d   1      -1.901  17.481   1.831  0.00  0.00    -0.317 OA
BRANCH   9  10
ATOM     10  C8  <0> d   1      -1.664  16.100   2.113  0.00  0.00     0.288 C 
ATOM     11  O3  <0> d   1      -0.839  15.539   1.089  0.00  0.00    -0.379 OA
ATOM     12  C12 <0> d   1      -0.518  14.161   1.288  0.00  0.00     0.194 C 
ATOM     13  C11 <0> d   1      -1.807  13.334   1.300  0.00  0.00     0.170 C 
ATOM     14  C10 <0> d   1      -2.733  13.863   2.401  0.00  0.00     0.163 C 
ATOM     15  C9  <0> d   1      -2.999  15.351   2.159  0.00  0.00     0.145 C 
BRANCH  12  16
ATOM     16  C13 <0> d   1       0.386  13.678   0.151  0.00  0.00     0.225 C 
BRANCH  16  17
ATOM     17  O4  <0> d   1       1.182  14.768  -0.319  0.00  0.00    -0.567 OA
ATOM     18  H15 <0> d   1       1.314  14.773  -1.277  0.00  0.00     0.385 HD
ENDBRANCH  16  17
ENDBRANCH  12  16
BRANCH  13  19
ATOM     19  O5  <0> d   1      -1.494  11.964   1.555  0.00  0.00    -0.550 OA
ATOM     20  H16 <0> d   1      -0.733  11.635   1.058  0.00  0.00     0.395 HD
ENDBRANCH  13  19
BRANCH  14  21
ATOM     21  O6  <0> d   1      -3.968  13.145   2.374  0.00  0.00    -0.555 OA
ATOM     22  H17 <0> d   1      -4.722  13.646   2.714  0.00  0.00     0.396 HD
ENDBRANCH  14  21
BRANCH  15  23
ATOM     23  O7  <0> d   1      -3.803  15.873   3.218  0.00  0.00    -0.553 OA
ATOM     24  H18 <0> d   1      -3.313  16.053   4.032  0.00  0.00     0.393 HD
ENDBRANCH  15  23
ENDBRANCH   9  10
ENDBRANCH   8   9
BRANCH   4  25
ATOM     25  C16 <0> d   1       0.007  19.464  -1.742  0.00  0.00     0.114 C 
BRANCH  25  26
ATOM     26  C17 <0> d   1      -0.675  20.156  -2.893  0.00  0.00     0.468 C 
ATOM     27  O10 <0> d   1      -1.843  19.942  -3.120  0.00  0.00    -0.499 OA
BRANCH  26  28
ATOM     28  O11 <0> d   1       0.012  21.009  -3.667  0.00  0.00    -0.353 OA
BRANCH  28  29
ATOM     29  C18 <0> d   1      -0.313  21.032  -5.058  0.00  0.00     0.213 C 
BRANCH  29  30
ATOM     30  C19 <0> d   1       0.502  19.963  -5.789  0.00  0.00     0.098 C 
BRANCH  30  31
ATOM     31  C20 <0> d   1       0.355  20.150  -7.277  0.00  0.00    -0.078 A 
ATOM     32  C25 <0> d   1      -0.712  19.576  -7.943  0.00  0.00     0.012 A 
ATOM     33  C24 <0> d   1      -0.852  19.752  -9.310  0.00  0.00     0.083 A 
ATOM     34  C23 <0> d   1       0.089  20.497 -10.012  0.00  0.00     0.082 A 
ATOM     35  C22 <0> d   1       1.159  21.067  -9.340  0.00  0.00     0.009 A 
ATOM     36  C21 <0> d   1       1.291  20.892  -7.975  0.00  0.00     0.029 A 
BRANCH  33  37
ATOM     37  O12 <0> d   1      -1.904  19.191  -9.965  0.00  0.00    -0.487 OA
ATOM     38  H31 <0> d   1      -1.661  18.736 -10.783  0.00  0.00     0.389 HD
ENDBRANCH  33  37
BRANCH  34  39
ATOM     39  O13 <0> d   1      -0.041  20.669 -11.355  0.00  0.00    -0.488 OA
ATOM     40  H32 <0> d   1       0.801  20.755 -11.824  0.00  0.00     0.389 HD
ENDBRANCH  34  39
ENDBRANCH  30  31
ENDBRANCH  29  30
ENDBRANCH  28  29
ENDBRANCH  26  28
ENDBRANCH  25  26
ENDBRANCH   4  25
BRANCH   5  41
ATOM     41  C14 <0> d   1       1.802  21.246   0.116  0.00  0.00     0.525 C 
ATOM     42  O8  <0> d   1       2.858  21.275   0.722  0.00  0.00    -0.522 OA
BRANCH  41  43
ATOM     43  O9  <0> d   1       1.572  22.125  -0.882  0.00  0.00    -0.352 OA
ATOM     44  C15 <0> d   1       2.097  23.443  -0.719  0.00  0.00     0.259 C 
ENDBRANCH  41  43
ENDBRANCH   5  41
TORSDOF 17
ENDMDL
MODEL 8
REMARK VINA RESULT:      -7.7     19.477     28.448
REMARK  17 active torsions:
REMARK  status: ('A' for Active; 'I' for Inactive)
REMARK    1  A    between atoms: C4_4  and  C16_25 
REMARK    2  A    between atoms: C5_5  and  C14_21 
REMARK    3  A    between atoms: C7_8  and  O2_9 
REMARK    4  A    between atoms: O2_9  and  C8_10 
REMARK    5  A    between atoms: C9_11  and  O7_20 
REMARK    6  A    between atoms: C10_12  and  O6_19 
REMARK    7  A    between atoms: C11_13  and  O5_18 
REMARK    8  A    between atoms: C12_14  and  C13_16 
REMARK    9  A    between atoms: C13_16  and  O4_17 
REMARK   10  A    between atoms: C14_21  and  O9_23 
REMARK   11  A    between atoms: C16_25  and  C17_26 
REMARK   12  A    between atoms: C17_26  and  O11_28 
REMARK   13  A    between atoms: O11_28  and  C18_29 
REMARK   14  A    between atoms: C18_29  and  C19_30 
REMARK   15  A    between atoms: C19_30  and  C20_31 
REMARK   16  A    between atoms: C23_34  and  O13_38 
REMARK   17  A    between atoms: C24_35  and  O12_37 
ROOT
ATOM      1  C1  <0> d   1       2.702  18.422 -28.178  0.00  0.00     0.093 C 
ATOM      2  C2  <0> d   1       2.023  19.743 -28.433  0.00  0.00     0.076 C 
ATOM      3  C3  <0> d   1       1.656  20.067 -29.648  0.00  0.00    -0.214 C 
ATOM      4  C4  <0> d   1       0.976  21.388 -29.951  0.00  0.00     0.148 C 
ATOM      5  C5  <0> d   1       1.518  21.900 -31.262  0.00  0.00    -0.302 C 
ATOM      6  C6  <0> d   1       2.261  21.141 -32.068  0.00  0.00     0.396 C 
ATOM      7  O1  <0> d   1       2.623  19.877 -31.812  0.00  0.00    -0.319 OA
ATOM      8  C7  <0> d   1       1.894  19.144 -30.829  0.00  0.00     0.396 C 
ENDROOT
BRANCH   8   9
ATOM      9  O2  <0> d   1       2.655  18.009 -30.412  0.00  0.00    -0.317 OA
BRANCH   9  10
ATOM     10  C8  <0> d   1       2.505  16.867 -31.258  0.00  0.00     0.288 C 
ATOM     11  O3  <0> d   1       3.332  17.019 -32.415  0.00  0.00    -0.379 OA
ATOM     12  C12 <0> d   1       3.277  15.916 -33.320  0.00  0.00     0.194 C 
ATOM     13  C11 <0> d   1       1.845  15.750 -33.836  0.00  0.00     0.170 C 
ATOM     14  C10 <0> d   1       0.902  15.550 -32.645  0.00  0.00     0.163 C 
ATOM     15  C9  <0> d   1       1.043  16.739 -31.691  0.00  0.00     0.145 C 
BRANCH  12  16
ATOM     16  C13 <0> d   1       4.217  16.176 -34.500  0.00  0.00     0.225 C 
BRANCH  16  17
ATOM     17  O4  <0> d   1       3.499  16.842 -35.541  0.00  0.00    -0.567 OA
ATOM     18  H15 <0> d   1       2.889  17.523 -35.224  0.00  0.00     0.385 HD
ENDBRANCH  16  17
ENDBRANCH  12  16
BRANCH  13  19
ATOM     19  O5  <0> d   1       1.775  14.613 -34.698  0.00  0.00    -0.550 OA
ATOM     20  H16 <0> d   1       1.704  13.769 -34.231  0.00  0.00     0.395 HD
ENDBRANCH  13  19
BRANCH  14  21
ATOM     21  O6  <0> d   1      -0.446  15.466 -33.111  0.00  0.00    -0.555 OA
ATOM     22  H17 <0> d   1      -0.659  14.631 -33.551  0.00  0.00     0.396 HD
ENDBRANCH  14  21
BRANCH  15  23
ATOM     23  O7  <0> d   1       0.221  16.530 -30.541  0.00  0.00    -0.553 OA
ATOM     24  H18 <0> d   1      -0.680  16.244 -30.747  0.00  0.00     0.393 HD
ENDBRANCH  15  23
ENDBRANCH   9  10
ENDBRANCH   8   9
BRANCH   4  25
ATOM     25  C16 <0> d   1      -0.536  21.177 -30.063  0.00  0.00     0.114 C 
BRANCH  25  26
ATOM     26  C17 <0> d   1      -1.205  21.655 -28.801  0.00  0.00     0.468 C 
ATOM     27  O10 <0> d   1      -1.646  22.779 -28.739  0.00  0.00    -0.499 OA
BRANCH  26  28
ATOM     28  O11 <0> d   1      -1.312  20.834 -27.745  0.00  0.00    -0.353 OA
BRANCH  28  29
ATOM     29  C18 <0> d   1      -0.675  21.247 -26.534  0.00  0.00     0.213 C 
BRANCH  29  30
ATOM     30  C19 <0> d   1      -0.397  20.022 -25.662  0.00  0.00     0.098 C 
BRANCH  30  31
ATOM     31  C20 <0> d   1      -0.662  20.363 -24.218  0.00  0.00    -0.078 A 
ATOM     32  C25 <0> d   1      -1.729  19.783 -23.557  0.00  0.00     0.012 A 
ATOM     33  C24 <0> d   1      -1.971  20.092 -22.228  0.00  0.00     0.083 A 
ATOM     34  C23 <0> d   1      -1.146  20.994 -21.565  0.00  0.00     0.082 A 
ATOM     35  C22 <0> d   1      -0.081  21.575 -22.235  0.00  0.00     0.009 A 
ATOM     36  C21 <0> d   1       0.158  21.260 -23.559  0.00  0.00     0.029 A 
BRANCH  33  37
ATOM     37  O12 <0> d   1      -3.018  19.518 -21.576  0.00  0.00    -0.487 OA
ATOM     38  H31 <0> d   1      -3.390  18.750 -22.029  0.00  0.00     0.389 HD
ENDBRANCH  33  37
BRANCH  34  39
ATOM     39  O13 <0> d   1      -1.382  21.303 -20.263  0.00  0.00    -0.488 OA
ATOM     40  H32 <0> d   1      -0.718  20.960 -19.649  0.00  0.00     0.389 HD
ENDBRANCH  34  39
ENDBRANCH  30  31
ENDBRANCH  29  30
ENDBRANCH  28  29
ENDBRANCH  26  28
ENDBRANCH  25  26
ENDBRANCH   4  25
BRANCH   5  41
ATOM     41  C14 <0> d   1       1.229  23.231 -31.648  0.00  0.00     0.525 C 
ATOM     42  O8  <0> d   1       0.964  23.484 -32.809  0.00  0.00    -0.522 OA
BRANCH  41  43
ATOM     43  O9  <0> d   1       1.248  24.220 -30.730  0.00  0.00    -0.352 OA
ATOM     44  C15 <0> d   1       0.285  25.264 -30.882  0.00  0.00     0.259 C 
ENDBRANCH  41  43
ENDBRANCH   5  41
TORSDOF 17
ENDMDL
MODEL 9
REMARK VINA RESULT:      -7.7     18.755     27.614
REMARK  17 active torsions:
REMARK  status: ('A' for Active; 'I' for Inactive)
REMARK    1  A    between atoms: C4_4  and  C16_25 
REMARK    2  A    between atoms: C5_5  and  C14_21 
REMARK    3  A    between atoms: C7_8  and  O2_9 
REMARK    4  A    between atoms: O2_9  and  C8_10 
REMARK    5  A    between atoms: C9_11  and  O7_20 
REMARK    6  A    between atoms: C10_12  and  O6_19 
REMARK    7  A    between atoms: C11_13  and  O5_18 
REMARK    8  A    between atoms: C12_14  and  C13_16 
REMARK    9  A    between atoms: C13_16  and  O4_17 
REMARK   10  A    between atoms: C14_21  and  O9_23 
REMARK   11  A    between atoms: C16_25  and  C17_26 
REMARK   12  A    between atoms: C17_26  and  O11_28 
REMARK   13  A    between atoms: O11_28  and  C18_29 
REMARK   14  A    between atoms: C18_29  and  C19_30 
REMARK   15  A    between atoms: C19_30  and  C20_31 
REMARK   16  A    between atoms: C23_34  and  O13_38 
REMARK   17  A    between atoms: C24_35  and  O12_37 
ROOT
ATOM      1  C1  <0> d   1       2.625  19.929 -29.007  0.00  0.00     0.093 C 
ATOM      2  C2  <0> d   1       1.700  21.108 -28.852  0.00  0.00     0.076 C 
ATOM      3  C3  <0> d   1       0.899  21.446 -29.832  0.00  0.00    -0.214 C 
ATOM      4  C4  <0> d   1      -0.044  22.629 -29.722  0.00  0.00     0.148 C 
ATOM      5  C5  <0> d   1      -0.062  23.335 -31.055  0.00  0.00    -0.302 C 
ATOM      6  C6  <0> d   1       0.476  22.797 -32.150  0.00  0.00     0.396 C 
ATOM      7  O1  <0> d   1       1.098  21.612 -32.196  0.00  0.00    -0.319 OA
ATOM      8  C7  <0> d   1       0.869  20.679 -31.142  0.00  0.00     0.396 C 
ENDROOT
BRANCH   8   9
ATOM      9  O2  <0> d   1       1.895  19.685 -31.145  0.00  0.00    -0.317 OA
BRANCH   9  10
ATOM     10  C8  <0> d   1       1.454  18.397 -31.581  0.00  0.00     0.288 C 
ATOM     11  O3  <0> d   1       0.425  17.925 -30.708  0.00  0.00    -0.379 OA
ATOM     12  C12 <0> d   1      -0.108  16.650 -31.069  0.00  0.00     0.194 C 
ATOM     13  C11 <0> d   1       1.007  15.601 -31.023  0.00  0.00     0.170 C 
ATOM     14  C10 <0> d   1       2.138  16.027 -31.964  0.00  0.00     0.163 C 
ATOM     15  C9  <0> d   1       2.631  17.419 -31.555  0.00  0.00     0.145 C 
BRANCH  12  16
ATOM     16  C13 <0> d   1      -1.214  16.261 -30.087  0.00  0.00     0.225 C 
BRANCH  16  17
ATOM     17  O4  <0> d   1      -2.140  15.385 -30.735  0.00  0.00    -0.567 OA
ATOM     18  H15 <0> d   1      -2.773  14.968 -30.134  0.00  0.00     0.385 HD
ENDBRANCH  16  17
ENDBRANCH  12  16
BRANCH  13  19
ATOM     19  O5  <0> d   1       0.491  14.335 -31.439  0.00  0.00    -0.550 OA
ATOM     20  H16 <0> d   1       0.449  14.223 -32.398  0.00  0.00     0.395 HD
ENDBRANCH  13  19
BRANCH  14  21
ATOM     21  O6  <0> d   1       3.215  15.092 -31.874  0.00  0.00    -0.555 OA
ATOM     22  H17 <0> d   1       2.945  14.209 -31.587  0.00  0.00     0.396 HD
ENDBRANCH  14  21
BRANCH  15  23
ATOM     23  O7  <0> d   1       3.638  17.858 -32.469  0.00  0.00    -0.553 OA
ATOM     24  H18 <0> d   1       4.335  17.208 -32.629  0.00  0.00     0.393 HD
ENDBRANCH  15  23
ENDBRANCH   9  10
ENDBRANCH   8   9
BRANCH   4  25
ATOM     25  C16 <0> d   1      -1.452  22.137 -29.376  0.00  0.00     0.114 C 
BRANCH  25  26
ATOM     26  C17 <0> d   1      -1.387  21.235 -28.171  0.00  0.00     0.468 C 
ATOM     27  O10 <0> d   1      -1.598  20.051 -28.291  0.00  0.00    -0.499 OA
BRANCH  26  28
ATOM     28  O11 <0> d   1      -1.096  21.746 -26.965  0.00  0.00    -0.353 OA
BRANCH  28  29
ATOM     29  C18 <0> d   1      -0.424  20.887 -26.041  0.00  0.00     0.213 C 
BRANCH  29  30
ATOM     30  C19 <0> d   1       0.621  21.691 -25.265  0.00  0.00     0.098 C 
BRANCH  30  31
ATOM     31  C20 <0> d   1       0.472  21.417 -23.791  0.00  0.00    -0.078 A 
ATOM     32  C25 <0> d   1       1.582  21.097 -23.033  0.00  0.00     0.012 A 
ATOM     33  C24 <0> d   1       1.448  20.850 -21.676  0.00  0.00     0.083 A 
ATOM     34  C23 <0> d   1       0.192  20.914 -21.081  0.00  0.00     0.082 A 
ATOM     35  C22 <0> d   1      -0.918  21.230 -21.848  0.00  0.00     0.009 A 
ATOM     36  C21 <0> d   1      -0.777  21.480 -23.201  0.00  0.00     0.029 A 
BRANCH  33  37
ATOM     37  O12 <0> d   1       2.541  20.540 -20.928  0.00  0.00    -0.487 OA
ATOM     38  H31 <0> d   1       2.342  20.023 -20.136  0.00  0.00     0.389 HD
ENDBRANCH  33  37
BRANCH  34  39
ATOM     39  O13 <0> d   1       0.054  20.667 -19.752  0.00  0.00    -0.488 OA
ATOM     40  H32 <0> d   1       0.827  20.912 -19.223  0.00  0.00     0.389 HD
ENDBRANCH  34  39
ENDBRANCH  30  31
ENDBRANCH  29  30
ENDBRANCH  28  29
ENDBRANCH  26  28
ENDBRANCH  25  26
ENDBRANCH   4  25
BRANCH   5  41
ATOM     41  C14 <0> d   1      -0.671  24.609 -31.145  0.00  0.00     0.525 C 
ATOM     42  O8  <0> d   1      -0.103  25.588 -30.696  0.00  0.00    -0.522 OA
BRANCH  41  43
ATOM     43  O9  <0> d   1      -1.881  24.740 -31.729  0.00  0.00    -0.352 OA
ATOM     44  C15 <0> d   1      -2.967  25.135 -30.889  0.00  0.00     0.259 C 
ENDBRANCH  41  43
ENDBRANCH   5  41
TORSDOF 17
ENDMDL
MODEL 10
REMARK VINA RESULT:      -7.6     19.368     27.706
REMARK  17 active torsions:
REMARK  status: ('A' for Active; 'I' for Inactive)
REMARK    1  A    between atoms: C4_4  and  C16_25 
REMARK    2  A    between atoms: C5_5  and  C14_21 
REMARK    3  A    between atoms: C7_8  and  O2_9 
REMARK    4  A    between atoms: O2_9  and  C8_10 
REMARK    5  A    between atoms: C9_11  and  O7_20 
REMARK    6  A    between atoms: C10_12  and  O6_19 
REMARK    7  A    between atoms: C11_13  and  O5_18 
REMARK    8  A    between atoms: C12_14  and  C13_16 
REMARK    9  A    between atoms: C13_16  and  O4_17 
REMARK   10  A    between atoms: C14_21  and  O9_23 
REMARK   11  A    between atoms: C16_25  and  C17_26 
REMARK   12  A    between atoms: C17_26  and  O11_28 
REMARK   13  A    between atoms: O11_28  and  C18_29 
REMARK   14  A    between atoms: C18_29  and  C19_30 
REMARK   15  A    between atoms: C19_30  and  C20_31 
REMARK   16  A    between atoms: C23_34  and  O13_38 
REMARK   17  A    between atoms: C24_35  and  O12_37 
ROOT
ATOM      1  C1  <0> d   1      -2.745  22.910 -28.153  0.00  0.00     0.093 C 
ATOM      2  C2  <0> d   1      -2.029  21.592 -28.295  0.00  0.00     0.076 C 
ATOM      3  C3  <0> d   1      -1.642  21.180 -29.477  0.00  0.00    -0.214 C 
ATOM      4  C4  <0> d   1      -0.925  19.858 -29.668  0.00  0.00     0.148 C 
ATOM      5  C5  <0> d   1      -1.442  19.227 -30.936  0.00  0.00    -0.302 C 
ATOM      6  C6  <0> d   1      -2.197  19.898 -31.807  0.00  0.00     0.396 C 
ATOM      7  O1  <0> d   1      -2.595  21.168 -31.657  0.00  0.00    -0.319 OA
ATOM      8  C7  <0> d   1      -1.894  21.998 -30.731  0.00  0.00     0.396 C 
ENDROOT
BRANCH   8   9
ATOM      9  O2  <0> d   1      -2.688  23.142 -30.413  0.00  0.00    -0.317 OA
BRANCH   9  10
ATOM     10  C8  <0> d   1      -2.540  24.227 -31.332  0.00  0.00     0.288 C 
ATOM     11  O3  <0> d   1      -3.254  23.933 -32.535  0.00  0.00    -0.379 OA
ATOM     12  C12 <0> d   1      -3.192  24.968 -33.518  0.00  0.00     0.194 C 
ATOM     13  C11 <0> d   1      -1.735  25.193 -33.930  0.00  0.00     0.170 C 
ATOM     14  C10 <0> d   1      -0.910  25.545 -32.687  0.00  0.00     0.163 C 
ATOM     15  C9  <0> d   1      -1.056  24.422 -31.656  0.00  0.00     0.145 C 
BRANCH  12  16
ATOM     16  C13 <0> d   1      -4.011  24.557 -34.744  0.00  0.00     0.225 C 
BRANCH  16  17
ATOM     17  O4  <0> d   1      -4.559  25.724 -35.362  0.00  0.00    -0.567 OA
ATOM     18  H15 <0> d   1      -4.093  25.998 -36.165  0.00  0.00     0.385 HD
ENDBRANCH  16  17
ENDBRANCH  12  16
BRANCH  13  19
ATOM     19  O5  <0> d   1      -1.663  26.266 -34.871  0.00  0.00    -0.550 OA
ATOM     20  H16 <0> d   1      -1.651  25.979 -35.794  0.00  0.00     0.395 HD
ENDBRANCH  13  19
BRANCH  14  21
ATOM     21  O6  <0> d   1       0.465  25.686 -33.049  0.00  0.00    -0.555 OA
ATOM     22  H17 <0> d   1       0.605  25.931 -33.975  0.00  0.00     0.396 HD
ENDBRANCH  14  21
BRANCH  15  23
ATOM     23  O7  <0> d   1      -0.349  24.771 -30.464  0.00  0.00    -0.553 OA
ATOM     24  H18 <0> d   1       0.059  25.647 -30.492  0.00  0.00     0.393 HD
ENDBRANCH  15  23
ENDBRANCH   9  10
ENDBRANCH   8   9
BRANCH   4  25
ATOM     25  C16 <0> d   1       0.581  20.100 -29.786  0.00  0.00     0.114 C 
BRANCH  25  26
ATOM     26  C17 <0> d   1       1.141  20.454 -28.433  0.00  0.00     0.468 C 
ATOM     27  O10 <0> d   1       1.854  21.423 -28.309  0.00  0.00    -0.499 OA
BRANCH  26  28
ATOM     28  O11 <0> d   1       0.850  19.696 -27.366  0.00  0.00    -0.353 OA
BRANCH  28  29
ATOM     29  C18 <0> d   1       0.664  20.370 -26.120  0.00  0.00     0.213 C 
BRANCH  29  30
ATOM     30  C19 <0> d   1      -0.563  19.798 -25.407  0.00  0.00     0.098 C 
BRANCH  30  31
ATOM     31  C20 <0> d   1      -0.422  20.003 -23.921  0.00  0.00    -0.078 A 
ATOM     32  C25 <0> d   1      -1.540  20.261 -23.151  0.00  0.00     0.012 A 
ATOM     33  C24 <0> d   1      -1.413  20.445 -21.784  0.00  0.00     0.083 A 
ATOM     34  C23 <0> d   1      -0.157  20.381 -21.190  0.00  0.00     0.082 A 
ATOM     35  C22 <0> d   1       0.961  20.127 -21.968  0.00  0.00     0.009 A 
ATOM     36  C21 <0> d   1       0.828  19.940 -23.332  0.00  0.00     0.029 A 
BRANCH  33  37
ATOM     37  O12 <0> d   1      -2.514  20.694 -21.025  0.00  0.00    -0.487 OA
ATOM     38  H31 <0> d   1      -2.314  20.991 -20.127  0.00  0.00     0.389 HD
ENDBRANCH  33  37
BRANCH  34  39
ATOM     39  O13 <0> d   1      -0.026  20.565 -19.850  0.00  0.00    -0.488 OA
ATOM     40  H32 <0> d   1      -0.554  21.296 -19.499  0.00  0.00     0.389 HD
ENDBRANCH  34  39
ENDBRANCH  30  31
ENDBRANCH  29  30
ENDBRANCH  28  29
ENDBRANCH  26  28
ENDBRANCH  25  26
ENDBRANCH   4  25
BRANCH   5  41
ATOM     41  C14 <0> d   1      -1.115  17.877 -31.211  0.00  0.00     0.525 C 
ATOM     42  O8  <0> d   1      -1.117  17.056 -30.313  0.00  0.00    -0.522 OA
BRANCH  41  43
ATOM     43  O9  <0> d   1      -0.801  17.501 -32.468  0.00  0.00    -0.352 OA
ATOM     44  C15 <0> d   1      -0.131  16.249 -32.622  0.00  0.00     0.259 C 
ENDBRANCH  41  43
ENDBRANCH   5  41
TORSDOF 17
ENDMDL
MODEL 11
REMARK VINA RESULT:      -7.6     19.026     27.386
REMARK  17 active torsions:
REMARK  status: ('A' for Active; 'I' for Inactive)
REMARK    1  A    between atoms: C4_4  and  C16_25 
REMARK    2  A    between atoms: C5_5  and  C14_21 
REMARK    3  A    between atoms: C7_8  and  O2_9 
REMARK    4  A    between atoms: O2_9  and  C8_10 
REMARK    5  A    between atoms: C9_11  and  O7_20 
REMARK    6  A    between atoms: C10_12  and  O6_19 
REMARK    7  A    between atoms: C11_13  and  O5_18 
REMARK    8  A    between atoms: C12_14  and  C13_16 
REMARK    9  A    between atoms: C13_16  and  O4_17 
REMARK   10  A    between atoms: C14_21  and  O9_23 
REMARK   11  A    between atoms: C16_25  and  C17_26 
REMARK   12  A    between atoms: C17_26  and  O11_28 
REMARK   13  A    between atoms: O11_28  and  C18_29 
REMARK   14  A    between atoms: C18_29  and  C19_30 
REMARK   15  A    between atoms: C19_30  and  C20_31 
REMARK   16  A    between atoms: C23_34  and  O13_38 
REMARK   17  A    between atoms: C24_35  and  O12_37 
ROOT
ATOM      1  C1  <0> d   1      -2.608  22.258 -28.985  0.00  0.00     0.093 C 
ATOM      2  C2  <0> d   1      -1.857  20.971 -28.761  0.00  0.00     0.076 C 
ATOM      3  C3  <0> d   1      -1.349  20.323 -29.781  0.00  0.00    -0.214 C 
ATOM      4  C4  <0> d   1      -0.591  19.022 -29.603  0.00  0.00     0.148 C 
ATOM      5  C5  <0> d   1      -0.970  18.105 -30.738  0.00  0.00    -0.302 C 
ATOM      6  C6  <0> d   1      -1.649  18.535 -31.803  0.00  0.00     0.396 C 
ATOM      7  O1  <0> d   1      -2.083  19.789 -31.979  0.00  0.00    -0.319 OA
ATOM      8  C7  <0> d   1      -1.493  20.831 -31.204  0.00  0.00     0.396 C 
ENDROOT
BRANCH   8   9
ATOM      9  O2  <0> d   1      -2.336  21.985 -31.224  0.00  0.00    -0.317 OA
BRANCH   9  10
ATOM     10  C8  <0> d   1      -1.866  23.032 -32.076  0.00  0.00     0.288 C 
ATOM     11  O3  <0> d   1      -0.669  23.590 -31.530  0.00  0.00    -0.379 OA
ATOM     12  C12 <0> d   1      -0.098  24.634 -32.320  0.00  0.00     0.194 C 
ATOM     13  C11 <0> d   1      -1.096  25.790 -32.434  0.00  0.00     0.170 C 
ATOM     14  C10 <0> d   1      -2.401  25.270 -33.044  0.00  0.00     0.163 C 
ATOM     15  C9  <0> d   1      -2.935  24.123 -32.180  0.00  0.00     0.145 C 
BRANCH  12  16
ATOM     16  C13 <0> d   1       1.187  25.134 -31.656  0.00  0.00     0.225 C 
BRANCH  16  17
ATOM     17  O4  <0> d   1       0.867  26.157 -30.711  0.00  0.00    -0.567 OA
ATOM     18  H15 <0> d   1       0.107  25.949 -30.149  0.00  0.00     0.385 HD
ENDBRANCH  16  17
ENDBRANCH  12  16
BRANCH  13  19
ATOM     19  O5  <0> d   1      -0.551  26.812 -33.271  0.00  0.00    -0.550 OA
ATOM     20  H16 <0> d   1      -1.217  27.381 -33.680  0.00  0.00     0.395 HD
ENDBRANCH  13  19
BRANCH  14  21
ATOM     21  O6  <0> d   1      -3.364  26.324 -33.088  0.00  0.00    -0.555 OA
ATOM     22  H17 <0> d   1      -4.222  26.090 -32.709  0.00  0.00     0.396 HD
ENDBRANCH  14  21
BRANCH  15  23
ATOM     23  O7  <0> d   1      -4.114  23.582 -32.778  0.00  0.00    -0.553 OA
ATOM     24  H18 <0> d   1      -3.980  22.726 -33.207  0.00  0.00     0.393 HD
ENDBRANCH  15  23
ENDBRANCH   9  10
ENDBRANCH   8   9
BRANCH   4  25
ATOM     25  C16 <0> d   1       0.915  19.293 -29.635  0.00  0.00     0.114 C 
BRANCH  25  26
ATOM     26  C17 <0> d   1       1.449  19.334 -28.227  0.00  0.00     0.468 C 
ATOM     27  O10 <0> d   1       2.232  18.492 -27.853  0.00  0.00    -0.499 OA
BRANCH  26  28
ATOM     28  O11 <0> d   1       1.055  20.303 -27.387  0.00  0.00    -0.353 OA
BRANCH  28  29
ATOM     29  C18 <0> d   1       0.777  19.921 -26.038  0.00  0.00     0.213 C 
BRANCH  29  30
ATOM     30  C19 <0> d   1      -0.295  20.845 -25.457  0.00  0.00     0.098 C 
BRANCH  30  31
ATOM     31  C20 <0> d   1      -0.239  20.795 -23.952  0.00  0.00    -0.078 A 
ATOM     32  C25 <0> d   1      -1.409  20.738 -23.219  0.00  0.00     0.012 A 
ATOM     33  C24 <0> d   1      -1.359  20.687 -21.835  0.00  0.00     0.083 A 
ATOM     34  C23 <0> d   1      -0.130  20.702 -21.186  0.00  0.00     0.082 A 
ATOM     35  C22 <0> d   1       1.040  20.763 -21.926  0.00  0.00     0.009 A 
ATOM     36  C21 <0> d   1       0.984  20.811 -23.306  0.00  0.00     0.029 A 
BRANCH  33  37
ATOM     37  O12 <0> d   1      -2.511  20.626 -21.114  0.00  0.00    -0.487 OA
ATOM     38  H31 <0> d   1      -3.135  21.338 -21.310  0.00  0.00     0.389 HD
ENDBRANCH  33  37
BRANCH  34  39
ATOM     39  O13 <0> d   1      -0.075  20.656 -19.828  0.00  0.00    -0.488 OA
ATOM     40  H32 <0> d   1       0.820  20.725 -19.467  0.00  0.00     0.389 HD
ENDBRANCH  34  39
ENDBRANCH  30  31
ENDBRANCH  29  30
ENDBRANCH  28  29
ENDBRANCH  26  28
ENDBRANCH  25  26
ENDBRANCH   4  25
BRANCH   5  41
ATOM     41  C14 <0> d   1      -0.591  16.742 -30.672  0.00  0.00     0.525 C 
ATOM     42  O8  <0> d   1      -1.283  15.948 -30.062  0.00  0.00    -0.522 OA
BRANCH  41  43
ATOM     43  O9  <0> d   1       0.537  16.324 -31.284  0.00  0.00    -0.352 OA
ATOM     44  C15 <0> d   1       1.584  15.831 -30.447  0.00  0.00     0.259 C 
ENDBRANCH  41  43
ENDBRANCH   5  41
TORSDOF 17
ENDMDL
MODEL 12
REMARK VINA RESULT:      -7.5     19.298     28.215
REMARK  17 active torsions:
REMARK  status: ('A' for Active; 'I' for Inactive)
REMARK    1  A    between atoms: C4_4  and  C16_25 
REMARK    2  A    between atoms: C5_5  and  C14_21 
REMARK    3  A    between atoms: C7_8  and  O2_9 
REMARK    4  A    between atoms: O2_9  and  C8_10 
REMARK    5  A    between atoms: C9_11  and  O7_20 
REMARK    6  A    between atoms: C10_12  and  O6_19 
REMARK    7  A    between atoms: C11_13  and  O5_18 
REMARK    8  A    between atoms: C12_14  and  C13_16 
REMARK    9  A    between atoms: C13_16  and  O4_17 
REMARK   10  A    between atoms: C14_21  and  O9_23 
REMARK   11  A    between atoms: C16_25  and  C17_26 
REMARK   12  A    between atoms: C17_26  and  O11_28 
REMARK   13  A    between atoms: O11_28  and  C18_29 
REMARK   14  A    between atoms: C18_29  and  C19_30 
REMARK   15  A    between atoms: C19_30  and  C20_31 
REMARK   16  A    between atoms: C23_34  and  O13_38 
REMARK   17  A    between atoms: C24_35  and  O12_37 
ROOT
ATOM      1  C1  <0> d   1       2.679  18.333 -28.572  0.00  0.00     0.093 C 
ATOM      2  C2  <0> d   1       1.959  19.653 -28.470  0.00  0.00     0.076 C 
ATOM      3  C3  <0> d   1       1.520  20.245 -29.554  0.00  0.00    -0.214 C 
ATOM      4  C4  <0> d   1       0.796  21.576 -29.499  0.00  0.00     0.148 C 
ATOM      5  C5  <0> d   1       1.257  22.404 -30.673  0.00  0.00    -0.302 C 
ATOM      6  C6  <0> d   1       1.971  21.884 -31.672  0.00  0.00     0.396 C 
ATOM      7  O1  <0> d   1       2.373  20.609 -31.744  0.00  0.00    -0.319 OA
ATOM      8  C7  <0> d   1       1.714  19.638 -30.932  0.00  0.00     0.396 C 
ENDROOT
BRANCH   8   9
ATOM      9  O2  <0> d   1       2.520  18.462 -30.835  0.00  0.00    -0.317 OA
BRANCH   9  10
ATOM     10  C8  <0> d   1       2.414  17.591 -31.963  0.00  0.00     0.288 C 
ATOM     11  O3  <0> d   1       1.776  18.281 -33.040  0.00  0.00    -0.379 OA
ATOM     12  C12 <0> d   1       1.642  17.504 -34.232  0.00  0.00     0.194 C 
ATOM     13  C11 <0> d   1       0.780  16.272 -33.942  0.00  0.00     0.170 C 
ATOM     14  C10 <0> d   1       1.423  15.463 -32.811  0.00  0.00     0.163 C 
ATOM     15  C9  <0> d   1       1.583  16.362 -31.582  0.00  0.00     0.145 C 
BRANCH  12  16
ATOM     16  C13 <0> d   1       0.974  18.349 -35.319  0.00  0.00     0.225 C 
BRANCH  16  17
ATOM     17  O4  <0> d   1      -0.445  18.297 -35.157  0.00  0.00    -0.567 OA
ATOM     18  H15 <0> d   1      -0.743  18.462 -34.252  0.00  0.00     0.385 HD
ENDBRANCH  16  17
ENDBRANCH  12  16
BRANCH  13  19
ATOM     19  O5  <0> d   1       0.690  15.464 -35.117  0.00  0.00    -0.550 OA
ATOM     20  H16 <0> d   1       1.491  14.958 -35.309  0.00  0.00     0.395 HD
ENDBRANCH  13  19
BRANCH  14  21
ATOM     21  O6  <0> d   1       0.589  14.350 -32.484  0.00  0.00    -0.555 OA
ATOM     22  H17 <0> d   1       1.037  13.494 -32.535  0.00  0.00     0.396 HD
ENDBRANCH  14  21
BRANCH  15  23
ATOM     23  O7  <0> d   1       2.247  15.640 -30.543  0.00  0.00    -0.553 OA
ATOM     24  H18 <0> d   1       1.668  15.050 -30.042  0.00  0.00     0.393 HD
ENDBRANCH  15  23
ENDBRANCH   9  10
ENDBRANCH   8   9
BRANCH   4  25
ATOM     25  C16 <0> d   1      -0.714  21.347 -29.587  0.00  0.00     0.114 C 
BRANCH  25  26
ATOM     26  C17 <0> d   1      -1.332  21.541 -28.227  0.00  0.00     0.468 C 
ATOM     27  O10 <0> d   1      -2.071  22.476 -28.027  0.00  0.00    -0.499 OA
BRANCH  26  28
ATOM     28  O11 <0> d   1      -1.063  20.676 -27.237  0.00  0.00    -0.353 OA
BRANCH  28  29
ATOM     29  C18 <0> d   1      -0.630  21.227 -25.992  0.00  0.00     0.213 C 
BRANCH  29  30
ATOM     30  C19 <0> d   1       0.382  20.284 -25.340  0.00  0.00     0.098 C 
BRANCH  30  31
ATOM     31  C20 <0> d   1       0.287  20.403 -23.841  0.00  0.00    -0.078 A 
ATOM     32  C25 <0> d   1       1.439  20.439 -23.078  0.00  0.00     0.012 A 
ATOM     33  C24 <0> d   1       1.353  20.554 -21.699  0.00  0.00     0.083 A 
ATOM     34  C23 <0> d   1       0.107  20.623 -21.086  0.00  0.00     0.082 A 
ATOM     35  C22 <0> d   1      -1.044  20.583 -21.857  0.00  0.00     0.009 A 
ATOM     36  C21 <0> d   1      -0.953  20.472 -23.232  0.00  0.00     0.029 A 
BRANCH  33  37
ATOM     37  O12 <0> d   1       2.486  20.594 -20.948  0.00  0.00    -0.487 OA
ATOM     38  H31 <0> d   1       2.894  19.729 -20.805  0.00  0.00     0.389 HD
ENDBRANCH  33  37
BRANCH  34  39
ATOM     39  O13 <0> d   1       0.017  20.732 -19.734  0.00  0.00    -0.488 OA
ATOM     40  H32 <0> d   1       0.483  20.035 -19.251  0.00  0.00     0.389 HD
ENDBRANCH  34  39
ENDBRANCH  30  31
ENDBRANCH  29  30
ENDBRANCH  28  29
ENDBRANCH  26  28
ENDBRANCH  25  26
ENDBRANCH   4  25
BRANCH   5  41
ATOM     41  C14 <0> d   1       0.919  23.778 -30.715  0.00  0.00     0.525 C 
ATOM     42  O8  <0> d   1       1.047  24.466 -29.719  0.00  0.00    -0.522 OA
BRANCH  41  43
ATOM     43  O9  <0> d   1       0.454  24.324 -31.858  0.00  0.00    -0.352 OA
ATOM     44  C15 <0> d   1      -0.940  24.172 -32.129  0.00  0.00     0.259 C 
ENDBRANCH  41  43
ENDBRANCH   5  41
TORSDOF 17
ENDMDL
MODEL 13
REMARK VINA RESULT:      -7.3     19.839     28.799
REMARK  17 active torsions:
REMARK  status: ('A' for Active; 'I' for Inactive)
REMARK    1  A    between atoms: C4_4  and  C16_25 
REMARK    2  A    between atoms: C5_5  and  C14_21 
REMARK    3  A    between atoms: C7_8  and  O2_9 
REMARK    4  A    between atoms: O2_9  and  C8_10 
REMARK    5  A    between atoms: C9_11  and  O7_20 
REMARK    6  A    between atoms: C10_12  and  O6_19 
REMARK    7  A    between atoms: C11_13  and  O5_18 
REMARK    8  A    between atoms: C12_14  and  C13_16 
REMARK    9  A    between atoms: C13_16  and  O4_17 
REMARK   10  A    between atoms: C14_21  and  O9_23 
REMARK   11  A    between atoms: C16_25  and  C17_26 
REMARK   12  A    between atoms: C17_26  and  O11_28 
REMARK   13  A    between atoms: O11_28  and  C18_29 
REMARK   14  A    between atoms: C18_29  and  C19_30 
REMARK   15  A    between atoms: C19_30  and  C20_31 
REMARK   16  A    between atoms: C23_34  and  O13_38 
REMARK   17  A    between atoms: C24_35  and  O12_37 
ROOT
ATOM      1  C1  <0> d   1       2.454  17.662 -29.213  0.00  0.00     0.093 C 
ATOM      2  C2  <0> d   1       1.671  18.950 -29.189  0.00  0.00     0.076 C 
ATOM      3  C3  <0> d   1       0.837  19.227 -30.161  0.00  0.00    -0.214 C 
ATOM      4  C4  <0> d   1       0.034  20.514 -30.181  0.00  0.00     0.148 C 
ATOM      5  C5  <0> d   1      -0.013  21.010 -31.605  0.00  0.00    -0.302 C 
ATOM      6  C6  <0> d   1       0.380  20.256 -32.633  0.00  0.00     0.396 C 
ATOM      7  O1  <0> d   1       0.870  19.014 -32.529  0.00  0.00    -0.319 OA
ATOM      8  C7  <0> d   1       0.627  18.282 -31.329  0.00  0.00     0.396 C 
ENDROOT
BRANCH   8   9
ATOM      9  O2  <0> d   1       1.540  17.187 -31.238  0.00  0.00    -0.317 OA
BRANCH   9  10
ATOM     10  C8  <0> d   1       1.933  16.651 -32.504  0.00  0.00     0.288 C 
ATOM     11  O3  <0> d   1       1.601  15.262 -32.556  0.00  0.00    -0.379 OA
ATOM     12  C12 <0> d   1       1.930  14.630 -33.795  0.00  0.00     0.194 C 
ATOM     13  C11 <0> d   1       3.441  14.719 -34.028  0.00  0.00     0.170 C 
ATOM     14  C10 <0> d   1       3.866  16.191 -34.014  0.00  0.00     0.163 C 
ATOM     15  C9  <0> d   1       3.443  16.822 -32.684  0.00  0.00     0.145 C 
BRANCH  12  16
ATOM     16  C13 <0> d   1       1.507  13.160 -33.747  0.00  0.00     0.225 C 
BRANCH  16  17
ATOM     17  O4  <0> d   1       1.546  12.611 -35.066  0.00  0.00    -0.567 OA
ATOM     18  H15 <0> d   1       0.795  12.039 -35.276  0.00  0.00     0.385 HD
ENDBRANCH  16  17
ENDBRANCH  12  16
BRANCH  13  19
ATOM     19  O5  <0> d   1       3.766  14.139 -35.292  0.00  0.00    -0.550 OA
ATOM     20  H16 <0> d   1       4.650  14.365 -35.612  0.00  0.00     0.395 HD
ENDBRANCH  13  19
BRANCH  14  21
ATOM     21  O6  <0> d   1       5.284  16.282 -34.158  0.00  0.00    -0.555 OA
ATOM     22  H17 <0> d   1       5.590  17.125 -34.520  0.00  0.00     0.396 HD
ENDBRANCH  14  21
BRANCH  15  23
ATOM     23  O7  <0> d   1       3.770  18.213 -32.687  0.00  0.00    -0.553 OA
ATOM     24  H18 <0> d   1       3.087  18.778 -32.302  0.00  0.00     0.393 HD
ENDBRANCH  15  23
ENDBRANCH   9  10
ENDBRANCH   8   9
BRANCH   4  25
ATOM     25  C16 <0> d   1      -1.386  20.244 -29.679  0.00  0.00     0.114 C 
BRANCH  25  26
ATOM     26  C17 <0> d   1      -1.383  20.176 -28.174  0.00  0.00     0.468 C 
ATOM     27  O10 <0> d   1      -1.680  19.147 -27.615  0.00  0.00    -0.499 OA
BRANCH  26  28
ATOM     28  O11 <0> d   1      -1.050  21.258 -27.453  0.00  0.00    -0.353 OA
BRANCH  28  29
ATOM     29  C18 <0> d   1      -0.892  21.077 -26.045  0.00  0.00     0.213 C 
BRANCH  29  30
ATOM     30  C19 <0> d   1       0.538  21.440 -25.641  0.00  0.00     0.098 C 
BRANCH  30  31
ATOM     31  C20 <0> d   1       0.765  21.063 -24.200  0.00  0.00    -0.078 A 
ATOM     32  C25 <0> d   1       1.830  21.603 -23.504  0.00  0.00     0.012 A 
ATOM     33  C24 <0> d   1       2.036  21.260 -22.177  0.00  0.00     0.083 A 
ATOM     34  C23 <0> d   1       1.176  20.365 -21.551  0.00  0.00     0.082 A 
ATOM     35  C22 <0> d   1       0.113  19.823 -22.255  0.00  0.00     0.009 A 
ATOM     36  C21 <0> d   1      -0.091  20.172 -23.578  0.00  0.00     0.029 A 
BRANCH  33  37
ATOM     37  O12 <0> d   1       3.082  21.795 -21.491  0.00  0.00    -0.487 OA
ATOM     38  H31 <0> d   1       3.602  21.146 -20.999  0.00  0.00     0.389 HD
ENDBRANCH  33  37
BRANCH  34  39
ATOM     39  O13 <0> d   1       1.377  20.022 -20.251  0.00  0.00    -0.488 OA
ATOM     40  H32 <0> d   1       1.793  19.157 -20.131  0.00  0.00     0.389 HD
ENDBRANCH  34  39
ENDBRANCH  30  31
ENDBRANCH  29  30
ENDBRANCH  28  29
ENDBRANCH  26  28
ENDBRANCH  25  26
ENDBRANCH   4  25
BRANCH   5  41
ATOM     41  C14 <0> d   1      -0.491  22.318 -31.858  0.00  0.00     0.525 C 
ATOM     42  O8  <0> d   1      -1.457  22.483 -32.579  0.00  0.00    -0.522 OA
BRANCH  41  43
ATOM     43  O9  <0> d   1       0.124  23.381 -31.299  0.00  0.00    -0.352 OA
ATOM     44  C15 <0> d   1      -0.650  24.183 -30.405  0.00  0.00     0.259 C 
ENDBRANCH  41  43
ENDBRANCH   5  41
TORSDOF 17
ENDMDL
MODEL 14
REMARK VINA RESULT:      -7.3     20.237     26.439
REMARK  17 active torsions:
REMARK  status: ('A' for Active; 'I' for Inactive)
REMARK    1  A    between atoms: C4_4  and  C16_25 
REMARK    2  A    between atoms: C5_5  and  C14_21 
REMARK    3  A    between atoms: C7_8  and  O2_9 
REMARK    4  A    between atoms: O2_9  and  C8_10 
REMARK    5  A    between atoms: C9_11  and  O7_20 
REMARK    6  A    between atoms: C10_12  and  O6_19 
REMARK    7  A    between atoms: C11_13  and  O5_18 
REMARK    8  A    between atoms: C12_14  and  C13_16 
REMARK    9  A    between atoms: C13_16  and  O4_17 
REMARK   10  A    between atoms: C14_21  and  O9_23 
REMARK   11  A    between atoms: C16_25  and  C17_26 
REMARK   12  A    between atoms: C17_26  and  O11_28 
REMARK   13  A    between atoms: O11_28  and  C18_29 
REMARK   14  A    between atoms: C18_29  and  C19_30 
REMARK   15  A    between atoms: C19_30  and  C20_31 
REMARK   16  A    between atoms: C23_34  and  O13_38 
REMARK   17  A    between atoms: C24_35  and  O12_37 
ROOT
ATOM      1  C1  <0> d   1       0.757  22.923 -28.641  0.00  0.00     0.093 C 
ATOM      2  C2  <0> d   1       0.815  21.799 -29.643  0.00  0.00     0.076 C 
ATOM      3  C3  <0> d   1       0.842  20.555 -29.231  0.00  0.00    -0.214 C 
ATOM      4  C4  <0> d   1       0.908  19.393 -30.203  0.00  0.00     0.148 C 
ATOM      5  C5  <0> d   1       1.830  18.351 -29.621  0.00  0.00    -0.302 C 
ATOM      6  C6  <0> d   1       2.259  18.408 -28.359  0.00  0.00     0.396 C 
ATOM      7  O1  <0> d   1       1.951  19.377 -27.488  0.00  0.00    -0.319 OA
ATOM      8  C7  <0> d   1       0.817  20.200 -27.755  0.00  0.00     0.396 C 
ENDROOT
BRANCH   8   9
ATOM      9  O2  <0> d   1       0.889  21.391 -26.969  0.00  0.00    -0.317 OA
BRANCH   9  10
ATOM     10  C8  <0> d   1       0.391  21.238 -25.637  0.00  0.00     0.288 C 
ATOM     11  O3  <0> d   1       1.446  21.481 -24.703  0.00  0.00    -0.379 OA
ATOM     12  C12 <0> d   1       1.049  21.379 -23.335  0.00  0.00     0.194 C 
ATOM     13  C11 <0> d   1       0.546  19.960 -23.054  0.00  0.00     0.170 C 
ATOM     14  C10 <0> d   1      -0.613  19.640 -24.004  0.00  0.00     0.163 C 
ATOM     15  C9  <0> d   1      -0.137  19.814 -25.450  0.00  0.00     0.145 C 
BRANCH  12  16
ATOM     16  C13 <0> d   1       2.245  21.684 -22.431  0.00  0.00     0.225 C 
BRANCH  16  17
ATOM     17  O4  <0> d   1       3.031  20.501 -22.269  0.00  0.00    -0.567 OA
ATOM     18  H15 <0> d   1       3.384  20.148 -23.098  0.00  0.00     0.385 HD
ENDBRANCH  16  17
ENDBRANCH  12  16
BRANCH  13  19
ATOM     19  O5  <0> d   1       0.095  19.870 -21.702  0.00  0.00    -0.550 OA
ATOM     20  H16 <0> d   1       0.808  19.822 -21.052  0.00  0.00     0.395 HD
ENDBRANCH  13  19
BRANCH  14  21
ATOM     21  O6  <0> d   1      -1.042  18.293 -23.800  0.00  0.00    -0.555 OA
ATOM     22  H17 <0> d   1      -0.665  17.875 -23.013  0.00  0.00     0.396 HD
ENDBRANCH  14  21
BRANCH  15  23
ATOM     23  O7  <0> d   1      -1.229  19.588 -26.344  0.00  0.00    -0.553 OA
ATOM     24  H18 <0> d   1      -1.707  20.391 -26.592  0.00  0.00     0.393 HD
ENDBRANCH  15  23
ENDBRANCH   9  10
ENDBRANCH   8   9
BRANCH   4  25
ATOM     25  C16 <0> d   1      -0.490  18.799 -30.392  0.00  0.00     0.114 C 
BRANCH  25  26
ATOM     26  C17 <0> d   1      -0.905  18.940 -31.834  0.00  0.00     0.468 C 
ATOM     27  O10 <0> d   1      -0.169  18.560 -32.714  0.00  0.00    -0.499 OA
BRANCH  26  28
ATOM     28  O11 <0> d   1      -2.091  19.487 -32.141  0.00  0.00    -0.353 OA
BRANCH  28  29
ATOM     29  C18 <0> d   1      -2.104  20.885 -32.439  0.00  0.00     0.213 C 
BRANCH  29  30
ATOM     30  C19 <0> d   1      -2.631  21.659 -31.229  0.00  0.00     0.098 C 
BRANCH  30  31
ATOM     31  C20 <0> d   1      -2.058  23.053 -31.237  0.00  0.00    -0.078 A 
ATOM     32  C25 <0> d   1      -1.122  23.409 -32.190  0.00  0.00     0.012 A 
ATOM     33  C24 <0> d   1      -0.598  24.692 -32.201  0.00  0.00     0.083 A 
ATOM     34  C23 <0> d   1      -1.007  25.616 -31.245  0.00  0.00     0.082 A 
ATOM     35  C22 <0> d   1      -1.942  25.251 -30.289  0.00  0.00     0.009 A 
ATOM     36  C21 <0> d   1      -2.464  23.970 -30.285  0.00  0.00     0.029 A 
BRANCH  33  37
ATOM     37  O12 <0> d   1       0.319  25.045 -33.141  0.00  0.00    -0.487 OA
ATOM     38  H31 <0> d   1       0.707  25.920 -33.004  0.00  0.00     0.389 HD
ENDBRANCH  33  37
BRANCH  34  39
ATOM     39  O13 <0> d   1      -0.493  26.874 -31.249  0.00  0.00    -0.488 OA
ATOM     40  H32 <0> d   1       0.403  26.934 -30.888  0.00  0.00     0.389 HD
ENDBRANCH  34  39
ENDBRANCH  30  31
ENDBRANCH  29  30
ENDBRANCH  28  29
ENDBRANCH  26  28
ENDBRANCH  25  26
ENDBRANCH   4  25
BRANCH   5  41
ATOM     41  C14 <0> d   1       2.255  17.279 -30.442  0.00  0.00     0.525 C 
ATOM     42  O8  <0> d   1       1.930  16.138 -30.168  0.00  0.00    -0.522 OA
BRANCH  41  43
ATOM     43  O9  <0> d   1       3.019  17.521 -31.527  0.00  0.00    -0.352 OA
ATOM     44  C15 <0> d   1       3.150  16.461 -32.477  0.00  0.00     0.259 C 
ENDBRANCH  41  43
ENDBRANCH   5  41
TORSDOF 17
ENDMDL
MODEL 15
REMARK VINA RESULT:      -7.2     20.146     29.148
REMARK  17 active torsions:
REMARK  status: ('A' for Active; 'I' for Inactive)
REMARK    1  A    between atoms: C4_4  and  C16_25 
REMARK    2  A    between atoms: C5_5  and  C14_21 
REMARK    3  A    between atoms: C7_8  and  O2_9 
REMARK    4  A    between atoms: O2_9  and  C8_10 
REMARK    5  A    between atoms: C9_11  and  O7_20 
REMARK    6  A    between atoms: C10_12  and  O6_19 
REMARK    7  A    between atoms: C11_13  and  O5_18 
REMARK    8  A    between atoms: C12_14  and  C13_16 
REMARK    9  A    between atoms: C13_16  and  O4_17 
REMARK   10  A    between atoms: C14_21  and  O9_23 
REMARK   11  A    between atoms: C16_25  and  C17_26 
REMARK   12  A    between atoms: C17_26  and  O11_28 
REMARK   13  A    between atoms: O11_28  and  C18_29 
REMARK   14  A    between atoms: C18_29  and  C19_30 
REMARK   15  A    between atoms: C19_30  and  C20_31 
REMARK   16  A    between atoms: C23_34  and  O13_38 
REMARK   17  A    between atoms: C24_35  and  O12_37 
ROOT
ATOM      1  C1  <0> d   1       1.847  15.447 -30.488  0.00  0.00     0.093 C 
ATOM      2  C2  <0> d   1       1.482  16.698 -29.732  0.00  0.00     0.076 C 
ATOM      3  C3  <0> d   1       1.015  17.740 -30.376  0.00  0.00    -0.214 C 
ATOM      4  C4  <0> d   1       0.640  19.021 -29.657  0.00  0.00     0.148 C 
ATOM      5  C5  <0> d   1       1.074  20.181 -30.517  0.00  0.00    -0.302 C 
ATOM      6  C6  <0> d   1       1.467  20.019 -31.781  0.00  0.00     0.396 C 
ATOM      7  O1  <0> d   1       1.544  18.842 -32.415  0.00  0.00    -0.319 OA
ATOM      8  C7  <0> d   1       0.826  17.731 -31.882  0.00  0.00     0.396 C 
ENDROOT
BRANCH   8   9
ATOM      9  O2  <0> d   1       1.341  16.516 -32.428  0.00  0.00    -0.317 OA
BRANCH   9  10
ATOM     10  C8  <0> d   1       1.857  16.648 -33.755  0.00  0.00     0.288 C 
ATOM     11  O3  <0> d   1       1.159  15.760 -34.629  0.00  0.00    -0.379 OA
ATOM     12  C12 <0> d   1       1.581  15.831 -35.992  0.00  0.00     0.194 C 
ATOM     13  C11 <0> d   1       3.061  15.449 -36.087  0.00  0.00     0.170 C 
ATOM     14  C10 <0> d   1       3.880  16.386 -35.193  0.00  0.00     0.163 C 
ATOM     15  C9  <0> d   1       3.348  16.300 -33.759  0.00  0.00     0.145 C 
BRANCH  12  16
ATOM     16  C13 <0> d   1       0.750  14.861 -36.836  0.00  0.00     0.225 C 
BRANCH  16  17
ATOM     17  O4  <0> d   1      -0.476  15.491 -37.214  0.00  0.00    -0.567 OA
ATOM     18  H15 <0> d   1      -1.111  14.894 -37.633  0.00  0.00     0.385 HD
ENDBRANCH  16  17
ENDBRANCH  12  16
BRANCH  13  19
ATOM     19  O5  <0> d   1       3.502  15.574 -37.440  0.00  0.00    -0.550 OA
ATOM     20  H16 <0> d   1       3.862  16.444 -37.658  0.00  0.00     0.395 HD
ENDBRANCH  13  19
BRANCH  14  21
ATOM     21  O6  <0> d   1       5.253  15.993 -35.218  0.00  0.00    -0.555 OA
ATOM     22  H17 <0> d   1       5.874  16.720 -35.062  0.00  0.00     0.396 HD
ENDBRANCH  14  21
BRANCH  15  23
ATOM     23  O7  <0> d   1       4.057  17.222 -32.929  0.00  0.00    -0.553 OA
ATOM     24  H18 <0> d   1       4.651  16.802 -32.292  0.00  0.00     0.393 HD
ENDBRANCH  15  23
ENDBRANCH   9  10
ENDBRANCH   8   9
BRANCH   4  25
ATOM     25  C16 <0> d   1      -0.875  19.070 -29.444  0.00  0.00     0.114 C 
BRANCH  25  26
ATOM     26  C17 <0> d   1      -1.172  19.206 -27.974  0.00  0.00     0.468 C 
ATOM     27  O10 <0> d   1      -1.820  18.357 -27.407  0.00  0.00    -0.499 OA
BRANCH  26  28
ATOM     28  O11 <0> d   1      -0.719  20.269 -27.292  0.00  0.00    -0.353 OA
BRANCH  28  29
ATOM     29  C18 <0> d   1      -0.300  20.046 -25.944  0.00  0.00     0.213 C 
BRANCH  29  30
ATOM     30  C19 <0> d   1      -0.050  21.390 -25.258  0.00  0.00     0.098 C 
BRANCH  30  31
ATOM     31  C20 <0> d   1      -0.064  21.202 -23.763  0.00  0.00    -0.078 A 
ATOM     32  C25 <0> d   1      -1.264  21.018 -23.102  0.00  0.00     0.012 A 
ATOM     33  C24 <0> d   1      -1.278  20.839 -21.728  0.00  0.00     0.083 A 
ATOM     34  C23 <0> d   1      -0.085  20.856 -21.015  0.00  0.00     0.082 A 
ATOM     35  C22 <0> d   1       1.115  21.046 -21.683  0.00  0.00     0.009 A 
ATOM     36  C21 <0> d   1       1.123  21.220 -23.055  0.00  0.00     0.029 A 
BRANCH  33  37
ATOM     37  O12 <0> d   1      -2.458  20.653 -21.078  0.00  0.00    -0.487 OA
ATOM     38  H31 <0> d   1      -2.946  21.470 -20.906  0.00  0.00     0.389 HD
ENDBRANCH  33  37
BRANCH  34  39
ATOM     39  O13 <0> d   1      -0.093  20.686 -19.666  0.00  0.00    -0.488 OA
ATOM     40  H32 <0> d   1       0.003  21.508 -19.165  0.00  0.00     0.389 HD
ENDBRANCH  34  39
ENDBRANCH  30  31
ENDBRANCH  29  30
ENDBRANCH  28  29
ENDBRANCH  26  28
ENDBRANCH  25  26
ENDBRANCH   4  25
BRANCH   5  41
ATOM     41  C14 <0> d   1       1.062  21.484 -29.965  0.00  0.00     0.525 C 
ATOM     42  O8  <0> d   1       1.676  21.715 -28.939  0.00  0.00    -0.522 OA
BRANCH  41  43
ATOM     43  O9  <0> d   1       0.371  22.470 -30.574  0.00  0.00    -0.352 OA
ATOM     44  C15 <0> d   1      -0.770  22.984 -29.885  0.00  0.00     0.259 C 
ENDBRANCH  41  43
ENDBRANCH   5  41
TORSDOF 17
ENDMDL
MODEL 16
REMARK VINA RESULT:      -7.2      3.011      7.340
REMARK  17 active torsions:
REMARK  status: ('A' for Active; 'I' for Inactive)
REMARK    1  A    between atoms: C4_4  and  C16_25 
REMARK    2  A    between atoms: C5_5  and  C14_21 
REMARK    3  A    between atoms: C7_8  and  O2_9 
REMARK    4  A    between atoms: O2_9  and  C8_10 
REMARK    5  A    between atoms: C9_11  and  O7_20 
REMARK    6  A    between atoms: C10_12  and  O6_19 
REMARK    7  A    between atoms: C11_13  and  O5_18 
REMARK    8  A    between atoms: C12_14  and  C13_16 
REMARK    9  A    between atoms: C13_16  and  O4_17 
REMARK   10  A    between atoms: C14_21  and  O9_23 
REMARK   11  A    between atoms: C16_25  and  C17_26 
REMARK   12  A    between atoms: C17_26  and  O11_28 
REMARK   13  A    between atoms: O11_28  and  C18_29 
REMARK   14  A    between atoms: C18_29  and  C19_30 
REMARK   15  A    between atoms: C19_30  and  C20_31 
REMARK   16  A    between atoms: C23_34  and  O13_38 
REMARK   17  A    between atoms: C24_35  and  O12_37 
ROOT
ATOM      1  C1  <0> d   1      -1.913  17.503  -2.394  0.00  0.00     0.093 C 
ATOM      2  C2  <0> d   1      -1.558  18.960  -2.254  0.00  0.00     0.076 C 
ATOM      3  C3  <0> d   1      -0.811  19.359  -1.254  0.00  0.00    -0.214 C 
ATOM      4  C4  <0> d   1      -0.434  20.816  -1.070  0.00  0.00     0.148 C 
ATOM      5  C5  <0> d   1      -0.485  21.127   0.405  0.00  0.00    -0.302 C 
ATOM      6  C6  <0> d   1      -0.594  20.172   1.328  0.00  0.00     0.396 C 
ATOM      7  O1  <0> d   1      -0.690  18.861   1.068  0.00  0.00    -0.319 OA
ATOM      8  C7  <0> d   1      -0.281  18.389  -0.214  0.00  0.00     0.396 C 
ENDROOT
BRANCH   8   9
ATOM      9  O2  <0> d   1      -0.824  17.087  -0.444  0.00  0.00    -0.317 OA
BRANCH   9  10
ATOM     10  C8  <0> d   1      -1.125  16.364   0.751  0.00  0.00     0.288 C 
ATOM     11  O3  <0> d   1      -0.063  16.535   1.693  0.00  0.00    -0.379 OA
ATOM     12  C12 <0> d   1      -0.275  15.871   2.939  0.00  0.00     0.194 C 
ATOM     13  C11 <0> d   1      -0.396  14.363   2.700  0.00  0.00     0.170 C 
ATOM     14  C10 <0> d   1      -1.542  14.100   1.717  0.00  0.00     0.163 C 
ATOM     15  C9  <0> d   1      -1.280  14.877   0.423  0.00  0.00     0.145 C 
BRANCH  12  16
ATOM     16  C13 <0> d   1       0.906  16.146   3.873  0.00  0.00     0.225 C 
BRANCH  16  17
ATOM     17  O4  <0> d   1       0.483  15.998   5.230  0.00  0.00    -0.567 OA
ATOM     18  H15 <0> d   1      -0.360  16.429   5.428  0.00  0.00     0.385 HD
ENDBRANCH  16  17
ENDBRANCH  12  16
BRANCH  13  19
ATOM     19  O5  <0> d   1      -0.665  13.701   3.937  0.00  0.00    -0.550 OA
ATOM     20  H16 <0> d   1      -1.165  14.236   4.568  0.00  0.00     0.395 HD
ENDBRANCH  13  19
BRANCH  14  21
ATOM     21  O6  <0> d   1      -1.616  12.703   1.431  0.00  0.00    -0.555 OA
ATOM     22  H17 <0> d   1      -1.975  12.171   2.155  0.00  0.00     0.396 HD
ENDBRANCH  14  21
BRANCH  15  23
ATOM     23  O7  <0> d   1      -2.377  14.697  -0.474  0.00  0.00    -0.553 OA
ATOM     24  H18 <0> d   1      -2.857  13.867  -0.347  0.00  0.00     0.393 HD
ENDBRANCH  15  23
ENDBRANCH   9  10
ENDBRANCH   8   9
BRANCH   4  25
ATOM     25  C16 <0> d   1       0.982  21.054  -1.601  0.00  0.00     0.114 C 
BRANCH  25  26
ATOM     26  C17 <0> d   1       0.940  22.080  -2.704  0.00  0.00     0.468 C 
ATOM     27  O10 <0> d   1       0.643  23.225  -2.453  0.00  0.00    -0.499 OA
BRANCH  26  28
ATOM     28  O11 <0> d   1       1.231  21.724  -3.964  0.00  0.00    -0.353 OA
BRANCH  28  29
ATOM     29  C18 <0> d   1       0.281  20.900  -4.642  0.00  0.00     0.213 C 
BRANCH  29  30
ATOM     30  C19 <0> d   1       1.017  19.807  -5.419  0.00  0.00     0.098 C 
BRANCH  30  31
ATOM     31  C20 <0> d   1       0.811  20.016  -6.897  0.00  0.00    -0.078 A 
ATOM     32  C25 <0> d   1       1.879  20.371  -7.700  0.00  0.00     0.012 A 
ATOM     33  C24 <0> d   1       1.692  20.558  -9.060  0.00  0.00     0.083 A 
ATOM     34  C23 <0> d   1       0.426  20.398  -9.613  0.00  0.00     0.082 A 
ATOM     35  C22 <0> d   1      -0.642  20.047  -8.803  0.00  0.00     0.009 A 
ATOM     36  C21 <0> d   1      -0.448  19.857  -7.447  0.00  0.00     0.029 A 
BRANCH  33  37
ATOM     37  O12 <0> d   1       2.743  20.903  -9.851  0.00  0.00    -0.487 OA
ATOM     38  H31 <0> d   1       2.730  21.824 -10.144  0.00  0.00     0.389 HD
ENDBRANCH  33  37
BRANCH  34  39
ATOM     39  O13 <0> d   1       0.236  20.585 -10.946  0.00  0.00    -0.488 OA
ATOM     40  H32 <0> d   1      -0.660  20.864 -11.181  0.00  0.00     0.389 HD
ENDBRANCH  34  39
ENDBRANCH  30  31
ENDBRANCH  29  30
ENDBRANCH  28  29
ENDBRANCH  26  28
ENDBRANCH  25  26
ENDBRANCH   4  25
BRANCH   5  41
ATOM     41  C14 <0> d   1      -0.416  22.479   0.821  0.00  0.00     0.525 C 
ATOM     42  O8  <0> d   1       0.584  22.893   1.377  0.00  0.00    -0.522 OA
BRANCH  41  43
ATOM     43  O9  <0> d   1      -1.458  23.307   0.602  0.00  0.00    -0.352 OA
ATOM     44  C15 <0> d   1      -1.181  24.532  -0.078  0.00  0.00     0.259 C 
ENDBRANCH  41  43
ENDBRANCH   5  41
TORSDOF 17
ENDMDL
MODEL 17
REMARK VINA RESULT:      -7.1     19.358     28.213
REMARK  17 active torsions:
REMARK  status: ('A' for Active; 'I' for Inactive)
REMARK    1  A    between atoms: C4_4  and  C16_25 
REMARK    2  A    between atoms: C5_5  and  C14_21 
REMARK    3  A    between atoms: C7_8  and  O2_9 
REMARK    4  A    between atoms: O2_9  and  C8_10 
REMARK    5  A    between atoms: C9_11  and  O7_20 
REMARK    6  A    between atoms: C10_12  and  O6_19 
REMARK    7  A    between atoms: C11_13  and  O5_18 
REMARK    8  A    between atoms: C12_14  and  C13_16 
REMARK    9  A    between atoms: C13_16  and  O4_17 
REMARK   10  A    between atoms: C14_21  and  O9_23 
REMARK   11  A    between atoms: C16_25  and  C17_26 
REMARK   12  A    between atoms: C17_26  and  O11_28 
REMARK   13  A    between atoms: O11_28  and  C18_29 
REMARK   14  A    between atoms: C18_29  and  C19_30 
REMARK   15  A    between atoms: C19_30  and  C20_31 
REMARK   16  A    between atoms: C23_34  and  O13_38 
REMARK   17  A    between atoms: C24_35  and  O12_37 
ROOT
ATOM      1  C1  <0> d   1       2.941  20.313 -29.317  0.00  0.00     0.093 C 
ATOM      2  C2  <0> d   1       1.724  21.129 -28.965  0.00  0.00     0.076 C 
ATOM      3  C3  <0> d   1       0.764  21.287 -29.843  0.00  0.00    -0.214 C 
ATOM      4  C4  <0> d   1      -0.475  22.104 -29.535  0.00  0.00     0.148 C 
ATOM      5  C5  <0> d   1      -0.838  22.884 -30.774  0.00  0.00    -0.302 C 
ATOM      6  C6  <0> d   1      -0.275  22.639 -31.957  0.00  0.00     0.396 C 
ATOM      7  O1  <0> d   1       0.667  21.714 -32.181  0.00  0.00    -0.319 OA
ATOM      8  C7  <0> d   1       0.836  20.667 -31.227  0.00  0.00     0.396 C 
ENDROOT
BRANCH   8   9
ATOM      9  O2  <0> d   1       2.109  20.044 -31.414  0.00  0.00    -0.317 OA
BRANCH   9  10
ATOM     10  C8  <0> d   1       2.081  18.920 -32.297  0.00  0.00     0.288 C 
ATOM     11  O3  <0> d   1       2.487  17.748 -31.588  0.00  0.00    -0.379 OA
ATOM     12  C12 <0> d   1       2.471  16.555 -32.375  0.00  0.00     0.194 C 
ATOM     13  C11 <0> d   1       3.444  16.705 -33.548  0.00  0.00     0.170 C 
ATOM     14  C10 <0> d   1       3.049  17.933 -34.375  0.00  0.00     0.163 C 
ATOM     15  C9  <0> d   1       3.038  19.166 -33.466  0.00  0.00     0.145 C 
BRANCH  12  16
ATOM     16  C13 <0> d   1       2.895  15.366 -31.510  0.00  0.00     0.225 C 
BRANCH  16  17
ATOM     17  O4  <0> d   1       4.311  15.193 -31.601  0.00  0.00    -0.567 OA
ATOM     18  H15 <0> d   1       4.619  14.321 -31.318  0.00  0.00     0.385 HD
ENDBRANCH  16  17
ENDBRANCH  12  16
BRANCH  13  19
ATOM     19  O5  <0> d   1       3.389  15.538 -34.369  0.00  0.00    -0.550 OA
ATOM     20  H16 <0> d   1       4.226  15.322 -34.802  0.00  0.00     0.395 HD
ENDBRANCH  13  19
BRANCH  14  21
ATOM     21  O6  <0> d   1       3.994  18.124 -35.430  0.00  0.00    -0.555 OA
ATOM     22  H17 <0> d   1       3.705  18.752 -36.107  0.00  0.00     0.396 HD
ENDBRANCH  14  21
BRANCH  15  23
ATOM     23  O7  <0> d   1       2.602  20.306 -34.210  0.00  0.00    -0.553 OA
ATOM     24  H18 <0> d   1       1.676  20.541 -34.062  0.00  0.00     0.393 HD
ENDBRANCH  15  23
ENDBRANCH   9  10
ENDBRANCH   8   9
BRANCH   4  25
ATOM     25  C16 <0> d   1      -1.627  21.172 -29.153  0.00  0.00     0.114 C 
BRANCH  25  26
ATOM     26  C17 <0> d   1      -1.277  20.433 -27.887  0.00  0.00     0.468 C 
ATOM     27  O10 <0> d   1      -1.127  19.234 -27.909  0.00  0.00    -0.499 OA
BRANCH  26  28
ATOM     28  O11 <0> d   1      -1.133  21.105 -26.735  0.00  0.00    -0.353 OA
BRANCH  28  29
ATOM     29  C18 <0> d   1       0.150  21.051 -26.108  0.00  0.00     0.213 C 
BRANCH  29  30
ATOM     30  C19 <0> d   1       0.202  19.856 -25.154  0.00  0.00     0.098 C 
BRANCH  30  31
ATOM     31  C20 <0> d   1      -0.305  20.273 -23.798  0.00  0.00    -0.078 A 
ATOM     32  C25 <0> d   1      -1.468  19.719 -23.296  0.00  0.00     0.012 A 
ATOM     33  C24 <0> d   1      -1.933  20.098 -22.047  0.00  0.00     0.083 A 
ATOM     34  C23 <0> d   1      -1.234  21.044 -21.305  0.00  0.00     0.082 A 
ATOM     35  C22 <0> d   1      -0.071  21.599 -21.816  0.00  0.00     0.009 A 
ATOM     36  C21 <0> d   1       0.390  21.214 -23.061  0.00  0.00     0.029 A 
BRANCH  33  37
ATOM     37  O12 <0> d   1      -3.074  19.549 -21.550  0.00  0.00    -0.487 OA
ATOM     38  H31 <0> d   1      -3.087  19.472 -20.587  0.00  0.00     0.389 HD
ENDBRANCH  33  37
BRANCH  34  39
ATOM     39  O13 <0> d   1      -1.688  21.422 -20.081  0.00  0.00    -0.488 OA
ATOM     40  H32 <0> d   1      -1.053  21.282 -19.364  0.00  0.00     0.389 HD
ENDBRANCH  34  39
ENDBRANCH  30  31
ENDBRANCH  29  30
ENDBRANCH  28  29
ENDBRANCH  26  28
ENDBRANCH  25  26
ENDBRANCH   4  25
BRANCH   5  41
ATOM     41  C14 <0> d   1      -1.809  23.910 -30.676  0.00  0.00     0.525 C 
ATOM     42  O8  <0> d   1      -1.706  24.764 -29.815  0.00  0.00    -0.522 OA
BRANCH  41  43
ATOM     43  O9  <0> d   1      -2.849  23.940 -31.535  0.00  0.00    -0.352 OA
ATOM     44  C15 <0> d   1      -3.062  25.157 -32.252  0.00  0.00     0.259 C 
ENDBRANCH  41  43
ENDBRANCH   5  41
TORSDOF 17
ENDMDL
MODEL 18
REMARK VINA RESULT:      -7.0     20.327     26.399
REMARK  17 active torsions:
REMARK  status: ('A' for Active; 'I' for Inactive)
REMARK    1  A    between atoms: C4_4  and  C16_25 
REMARK    2  A    between atoms: C5_5  and  C14_21 
REMARK    3  A    between atoms: C7_8  and  O2_9 
REMARK    4  A    between atoms: O2_9  and  C8_10 
REMARK    5  A    between atoms: C9_11  and  O7_20 
REMARK    6  A    between atoms: C10_12  and  O6_19 
REMARK    7  A    between atoms: C11_13  and  O5_18 
REMARK    8  A    between atoms: C12_14  and  C13_16 
REMARK    9  A    between atoms: C13_16  and  O4_17 
REMARK   10  A    between atoms: C14_21  and  O9_23 
REMARK   11  A    between atoms: C16_25  and  C17_26 
REMARK   12  A    between atoms: C17_26  and  O11_28 
REMARK   13  A    between atoms: O11_28  and  C18_29 
REMARK   14  A    between atoms: C18_29  and  C19_30 
REMARK   15  A    between atoms: C19_30  and  C20_31 
REMARK   16  A    between atoms: C23_34  and  O13_38 
REMARK   17  A    between atoms: C24_35  and  O12_37 
ROOT
ATOM      1  C1  <0> d   1      -0.352  18.551 -28.575  0.00  0.00     0.093 C 
ATOM      2  C2  <0> d   1      -0.338  19.687 -29.565  0.00  0.00     0.076 C 
ATOM      3  C3  <0> d   1      -0.559  20.913 -29.158  0.00  0.00    -0.214 C 
ATOM      4  C4  <0> d   1      -0.562  22.085 -30.120  0.00  0.00     0.148 C 
ATOM      5  C5  <0> d   1      -1.671  23.022 -29.709  0.00  0.00    -0.302 C 
ATOM      6  C6  <0> d   1      -2.311  22.897 -28.546  0.00  0.00     0.396 C 
ATOM      7  O1  <0> d   1      -2.071  21.942 -27.638  0.00  0.00    -0.319 OA
ATOM      8  C7  <0> d   1      -0.834  21.235 -27.701  0.00  0.00     0.396 C 
ENDROOT
BRANCH   8   9
ATOM      9  O2  <0> d   1      -0.930  20.026 -26.946  0.00  0.00    -0.317 OA
BRANCH   9  10
ATOM     10  C8  <0> d   1      -0.417  20.129 -25.616  0.00  0.00     0.288 C 
ATOM     11  O3  <0> d   1      -1.474  19.909 -24.679  0.00  0.00    -0.379 OA
ATOM     12  C12 <0> d   1      -1.064  19.964 -23.312  0.00  0.00     0.194 C 
ATOM     13  C11 <0> d   1      -0.502  21.356 -23.005  0.00  0.00     0.170 C 
ATOM     14  C10 <0> d   1       0.662  21.649 -23.956  0.00  0.00     0.163 C 
ATOM     15  C9  <0> d   1       0.170  21.526 -25.402  0.00  0.00     0.145 C 
BRANCH  12  16
ATOM     16  C13 <0> d   1      -2.265  19.688 -22.406  0.00  0.00     0.225 C 
BRANCH  16  17
ATOM     17  O4  <0> d   1      -3.039  20.882 -22.265  0.00  0.00    -0.567 OA
ATOM     18  H15 <0> d   1      -2.982  21.285 -21.387  0.00  0.00     0.385 HD
ENDBRANCH  16  17
ENDBRANCH  12  16
BRANCH  13  19
ATOM     19  O5  <0> d   1      -0.039  21.398 -21.654  0.00  0.00    -0.550 OA
ATOM     20  H16 <0> d   1      -0.688  21.095 -21.006  0.00  0.00     0.395 HD
ENDBRANCH  13  19
BRANCH  14  21
ATOM     21  O6  <0> d   1       1.146  22.974 -23.726  0.00  0.00    -0.555 OA
ATOM     22  H17 <0> d   1       0.505  23.668 -23.931  0.00  0.00     0.396 HD
ENDBRANCH  14  21
BRANCH  15  23
ATOM     23  O7  <0> d   1       1.264  21.728 -26.299  0.00  0.00    -0.553 OA
ATOM     24  H18 <0> d   1       1.043  22.261 -27.075  0.00  0.00     0.393 HD
ENDBRANCH  15  23
ENDBRANCH   9  10
ENDBRANCH   8   9
BRANCH   4  25
ATOM     25  C16 <0> d   1       0.783  22.813 -30.051  0.00  0.00     0.114 C 
BRANCH  25  26
ATOM     26  C17 <0> d   1       1.348  22.958 -31.440  0.00  0.00     0.468 C 
ATOM     27  O10 <0> d   1       1.443  24.054 -31.941  0.00  0.00    -0.499 OA
BRANCH  26  28
ATOM     28  O11 <0> d   1       1.745  21.873 -32.121  0.00  0.00    -0.353 OA
BRANCH  28  29
ATOM     29  C18 <0> d   1       2.654  20.989 -31.462  0.00  0.00     0.213 C 
BRANCH  29  30
ATOM     30  C19 <0> d   1       3.018  19.838 -32.402  0.00  0.00     0.098 C 
BRANCH  30  31
ATOM     31  C20 <0> d   1       2.059  18.695 -32.192  0.00  0.00    -0.078 A 
ATOM     32  C25 <0> d   1       2.380  17.677 -31.315  0.00  0.00     0.012 A 
ATOM     33  C24 <0> d   1       1.496  16.628 -31.117  0.00  0.00     0.083 A 
ATOM     34  C23 <0> d   1       0.291  16.597 -31.811  0.00  0.00     0.082 A 
ATOM     35  C22 <0> d   1      -0.023  17.619 -32.693  0.00  0.00     0.009 A 
ATOM     36  C21 <0> d   1       0.861  18.665 -32.883  0.00  0.00     0.029 A 
BRANCH  33  37
ATOM     37  O12 <0> d   1       1.809  15.628 -30.250  0.00  0.00    -0.487 OA
ATOM     38  H31 <0> d   1       1.380  14.785 -30.450  0.00  0.00     0.389 HD
ENDBRANCH  33  37
BRANCH  34  39
ATOM     39  O13 <0> d   1      -0.577  15.568 -31.624  0.00  0.00    -0.488 OA
ATOM     40  H32 <0> d   1      -0.534  15.171 -30.742  0.00  0.00     0.389 HD
ENDBRANCH  34  39
ENDBRANCH  30  31
ENDBRANCH  29  30
ENDBRANCH  28  29
ENDBRANCH  26  28
ENDBRANCH  25  26
ENDBRANCH   4  25
BRANCH   5  41
ATOM     41  C14 <0> d   1      -2.043  24.068 -30.587  0.00  0.00     0.525 C 
ATOM     42  O8  <0> d   1      -2.350  25.157 -30.140  0.00  0.00    -0.522 OA
BRANCH  41  43
ATOM     43  O9  <0> d   1      -2.058  23.857 -31.920  0.00  0.00    -0.352 OA
ATOM     44  C15 <0> d   1      -3.231  23.251 -32.468  0.00  0.00     0.259 C 
ENDBRANCH  41  43
ENDBRANCH   5  41
TORSDOF 17
ENDMDL
MODEL 19
REMARK VINA RESULT:      -6.9     20.786     26.430
REMARK  17 active torsions:
REMARK  status: ('A' for Active; 'I' for Inactive)
REMARK    1  A    between atoms: C4_4  and  C16_25 
REMARK    2  A    between atoms: C5_5  and  C14_21 
REMARK    3  A    between atoms: C7_8  and  O2_9 
REMARK    4  A    between atoms: O2_9  and  C8_10 
REMARK    5  A    between atoms: C9_11  and  O7_20 
REMARK    6  A    between atoms: C10_12  and  O6_19 
REMARK    7  A    between atoms: C11_13  and  O5_18 
REMARK    8  A    between atoms: C12_14  and  C13_16 
REMARK    9  A    between atoms: C13_16  and  O4_17 
REMARK   10  A    between atoms: C14_21  and  O9_23 
REMARK   11  A    between atoms: C16_25  and  C17_26 
REMARK   12  A    between atoms: C17_26  and  O11_28 
REMARK   13  A    between atoms: O11_28  and  C18_29 
REMARK   14  A    between atoms: C18_29  and  C19_30 
REMARK   15  A    between atoms: C19_30  and  C20_31 
REMARK   16  A    between atoms: C23_34  and  O13_38 
REMARK   17  A    between atoms: C24_35  and  O12_37 
ROOT
ATOM      1  C1  <0> d   1      -1.108  19.068 -28.541  0.00  0.00     0.093 C 
ATOM      2  C2  <0> d   1      -1.230  20.024 -29.699  0.00  0.00     0.076 C 
ATOM      3  C3  <0> d   1      -1.247  21.317 -29.483  0.00  0.00    -0.214 C 
ATOM      4  C4  <0> d   1      -1.375  22.315 -30.617  0.00  0.00     0.148 C 
ATOM      5  C5  <0> d   1      -2.275  23.433 -30.154  0.00  0.00    -0.302 C 
ATOM      6  C6  <0> d   1      -2.635  23.571 -28.877  0.00  0.00     0.396 C 
ATOM      7  O1  <0> d   1      -2.271  22.749 -27.885  0.00  0.00    -0.319 OA
ATOM      8  C7  <0> d   1      -1.146  21.895 -28.084  0.00  0.00     0.396 C 
ENDROOT
BRANCH   8   9
ATOM      9  O2  <0> d   1      -1.164  20.840 -27.120  0.00  0.00    -0.317 OA
BRANCH   9  10
ATOM     10  C8  <0> d   1      -0.408  21.119 -25.939  0.00  0.00     0.288 C 
ATOM     11  O3  <0> d   1       0.304  19.945 -25.541  0.00  0.00    -0.379 OA
ATOM     12  C12 <0> d   1       1.116  20.122 -24.379  0.00  0.00     0.194 C 
ATOM     13  C11 <0> d   1       0.230  20.508 -23.192  0.00  0.00     0.170 C 
ATOM     14  C10 <0> d   1      -0.545  21.784 -23.537  0.00  0.00     0.163 C 
ATOM     15  C9  <0> d   1      -1.356  21.546 -24.815  0.00  0.00     0.145 C 
BRANCH  12  16
ATOM     16  C13 <0> d   1       1.849  18.815 -24.065  0.00  0.00     0.225 C 
BRANCH  16  17
ATOM     17  O4  <0> d   1       1.124  18.092 -23.067  0.00  0.00    -0.567 OA
ATOM     18  H15 <0> d   1       0.164  18.200 -23.124  0.00  0.00     0.385 HD
ENDBRANCH  16  17
ENDBRANCH  12  16
BRANCH  13  19
ATOM     19  O5  <0> d   1       1.045  20.741 -22.042  0.00  0.00    -0.550 OA
ATOM     20  H16 <0> d   1       1.659  20.021 -21.843  0.00  0.00     0.395 HD
ENDBRANCH  13  19
BRANCH  14  21
ATOM     21  O6  <0> d   1      -1.429  22.113 -22.464  0.00  0.00    -0.555 OA
ATOM     22  H17 <0> d   1      -2.125  21.458 -22.313  0.00  0.00     0.396 HD
ENDBRANCH  14  21
BRANCH  15  23
ATOM     23  O7  <0> d   1      -2.027  22.750 -25.188  0.00  0.00    -0.553 OA
ATOM     24  H18 <0> d   1      -1.825  23.506 -24.619  0.00  0.00     0.393 HD
ENDBRANCH  15  23
ENDBRANCH   9  10
ENDBRANCH   8   9
BRANCH   4  25
ATOM     25  C16 <0> d   1       0.005  22.873 -30.972  0.00  0.00     0.114 C 
BRANCH  25  26
ATOM     26  C17 <0> d   1       0.201  22.819 -32.465  0.00  0.00     0.468 C 
ATOM     27  O10 <0> d   1      -0.057  23.786 -33.144  0.00  0.00    -0.499 OA
BRANCH  26  28
ATOM     28  O11 <0> d   1       0.661  21.699 -33.042  0.00  0.00    -0.353 OA
BRANCH  28  29
ATOM     29  C18 <0> d   1       2.078  21.568 -33.170  0.00  0.00     0.213 C 
BRANCH  29  30
ATOM     30  C19 <0> d   1       2.472  20.099 -33.005  0.00  0.00     0.098 C 
BRANCH  30  31
ATOM     31  C20 <0> d   1       2.424  19.727 -31.546  0.00  0.00    -0.078 A 
ATOM     32  C25 <0> d   1       2.134  18.428 -31.174  0.00  0.00     0.012 A 
ATOM     33  C24 <0> d   1       2.095  18.083 -29.833  0.00  0.00     0.083 A 
ATOM     34  C23 <0> d   1       2.338  19.049 -28.862  0.00  0.00     0.082 A 
ATOM     35  C22 <0> d   1       2.624  20.351 -29.241  0.00  0.00     0.009 A 
ATOM     36  C21 <0> d   1       2.665  20.688 -30.581  0.00  0.00     0.029 A 
BRANCH  33  37
ATOM     37  O12 <0> d   1       1.814  16.804 -29.466  0.00  0.00    -0.487 OA
ATOM     38  H31 <0> d   1       1.421  16.724 -28.586  0.00  0.00     0.389 HD
ENDBRANCH  33  37
BRANCH  34  39
ATOM     39  O13 <0> d   1       2.296  18.717 -27.545  0.00  0.00    -0.488 OA
ATOM     40  H32 <0> d   1       3.045  19.050 -27.030  0.00  0.00     0.389 HD
ENDBRANCH  34  39
ENDBRANCH  30  31
ENDBRANCH  29  30
ENDBRANCH  28  29
ENDBRANCH  26  28
ENDBRANCH  25  26
ENDBRANCH   4  25
BRANCH   5  41
ATOM     41  C14 <0> d   1      -2.753  24.365 -31.106  0.00  0.00     0.525 C 
ATOM     42  O8  <0> d   1      -3.223  23.973 -32.158  0.00  0.00    -0.522 OA
BRANCH  41  43
ATOM     43  O9  <0> d   1      -2.687  25.688 -30.847  0.00  0.00    -0.352 OA
ATOM     44  C15 <0> d   1      -1.453  26.345 -31.141  0.00  0.00     0.259 C 
ENDBRANCH  41  43
ENDBRANCH   5  41
TORSDOF 17
ENDMDL
MODEL 20
REMARK VINA RESULT:      -6.9     26.923     30.695
REMARK  17 active torsions:
REMARK  status: ('A' for Active; 'I' for Inactive)
REMARK    1  A    between atoms: C4_4  and  C16_25 
REMARK    2  A    between atoms: C5_5  and  C14_21 
REMARK    3  A    between atoms: C7_8  and  O2_9 
REMARK    4  A    between atoms: O2_9  and  C8_10 
REMARK    5  A    between atoms: C9_11  and  O7_20 
REMARK    6  A    between atoms: C10_12  and  O6_19 
REMARK    7  A    between atoms: C11_13  and  O5_18 
REMARK    8  A    between atoms: C12_14  and  C13_16 
REMARK    9  A    between atoms: C13_16  and  O4_17 
REMARK   10  A    between atoms: C14_21  and  O9_23 
REMARK   11  A    between atoms: C16_25  and  C17_26 
REMARK   12  A    between atoms: C17_26  and  O11_28 
REMARK   13  A    between atoms: O11_28  and  C18_29 
REMARK   14  A    between atoms: C18_29  and  C19_30 
REMARK   15  A    between atoms: C19_30  and  C20_31 
REMARK   16  A    between atoms: C23_34  and  O13_38 
REMARK   17  A    between atoms: C24_35  and  O12_37 
ROOT
ATOM      1  C1  <0> d   1       2.840  21.335 -31.489  0.00  0.00     0.093 C 
ATOM      2  C2  <0> d   1       2.097  22.286 -32.391  0.00  0.00     0.076 C 
ATOM      3  C3  <0> d   1       1.118  21.845 -33.142  0.00  0.00    -0.214 C 
ATOM      4  C4  <0> d   1       0.347  22.765 -34.069  0.00  0.00     0.148 C 
ATOM      5  C5  <0> d   1       0.072  22.013 -35.348  0.00  0.00    -0.302 C 
ATOM      6  C6  <0> d   1       0.275  20.700 -35.456  0.00  0.00     0.396 C 
ATOM      7  O1  <0> d   1       0.753  19.915 -34.482  0.00  0.00    -0.319 OA
ATOM      8  C7  <0> d   1       0.698  20.387 -33.137  0.00  0.00     0.396 C 
ENDROOT
BRANCH   8   9
ATOM      9  O2  <0> d   1       1.594  19.627 -32.323  0.00  0.00    -0.317 OA
BRANCH   9  10
ATOM     10  C8  <0> d   1       1.387  18.215 -32.392  0.00  0.00     0.288 C 
ATOM     11  O3  <0> d   1       0.296  17.851 -31.543  0.00  0.00    -0.379 OA
ATOM     12  C12 <0> d   1      -0.014  16.456 -31.557  0.00  0.00     0.194 C 
ATOM     13  C11 <0> d   1       1.197  15.659 -31.065  0.00  0.00     0.170 C 
ATOM     14  C10 <0> d   1       2.404  15.979 -31.953  0.00  0.00     0.163 C 
ATOM     15  C9  <0> d   1       2.654  17.490 -31.934  0.00  0.00     0.145 C 
BRANCH  12  16
ATOM     16  C13 <0> d   1      -1.208  16.189 -30.638  0.00  0.00     0.225 C 
BRANCH  16  17
ATOM     17  O4  <0> d   1      -1.113  17.023 -29.481  0.00  0.00    -0.567 OA
ATOM     18  H15 <0> d   1      -1.744  16.799 -28.783  0.00  0.00     0.385 HD
ENDBRANCH  16  17
ENDBRANCH  12  16
BRANCH  13  19
ATOM     19  O5  <0> d   1       0.911  14.261 -31.131  0.00  0.00    -0.550 OA
ATOM     20  H16 <0> d   1       0.724  13.857 -30.273  0.00  0.00     0.395 HD
ENDBRANCH  13  19
BRANCH  14  21
ATOM     21  O6  <0> d   1       3.557  15.296 -31.458  0.00  0.00    -0.555 OA
ATOM     22  H17 <0> d   1       3.896  15.650 -30.623  0.00  0.00     0.396 HD
ENDBRANCH  14  21
BRANCH  15  23
ATOM     23  O7  <0> d   1       3.733  17.808 -32.815  0.00  0.00    -0.553 OA
ATOM     24  H18 <0> d   1       3.506  17.746 -33.753  0.00  0.00     0.393 HD
ENDBRANCH  15  23
ENDBRANCH   9  10
ENDBRANCH   8   9
BRANCH   4  25
ATOM     25  C16 <0> d   1      -0.975  23.170 -33.413  0.00  0.00     0.114 C 
BRANCH  25  26
ATOM     26  C17 <0> d   1      -0.875  24.588 -32.915  0.00  0.00     0.468 C 
ATOM     27  O10 <0> d   1       0.105  25.249 -33.166  0.00  0.00    -0.499 OA
BRANCH  26  28
ATOM     28  O11 <0> d   1      -1.874  25.119 -32.192  0.00  0.00    -0.353 OA
BRANCH  28  29
ATOM     29  C18 <0> d   1      -1.624  25.337 -30.802  0.00  0.00     0.213 C 
BRANCH  29  30
ATOM     30  C19 <0> d   1      -2.433  24.337 -29.974  0.00  0.00     0.098 C 
BRANCH  30  31
ATOM     31  C20 <0> d   1      -1.638  23.068 -29.804  0.00  0.00    -0.078 A 
ATOM     32  C25 <0> d   1      -2.124  21.876 -30.308  0.00  0.00     0.012 A 
ATOM     33  C24 <0> d   1      -1.391  20.709 -30.156  0.00  0.00     0.083 A 
ATOM     34  C23 <0> d   1      -0.173  20.739 -29.487  0.00  0.00     0.082 A 
ATOM     35  C22 <0> d   1       0.307  21.936 -28.980  0.00  0.00     0.009 A 
ATOM     36  C21 <0> d   1      -0.426  23.098 -29.138  0.00  0.00     0.029 A 
BRANCH  33  37
ATOM     37  O12 <0> d   1      -1.867  19.537 -30.656  0.00  0.00    -0.487 OA
ATOM     38  H31 <0> d   1      -2.642  19.638 -31.225  0.00  0.00     0.389 HD
ENDBRANCH  33  37
BRANCH  34  39
ATOM     39  O13 <0> d   1       0.548  19.596 -29.331  0.00  0.00    -0.488 OA
ATOM     40  H32 <0> d   1       1.486  19.744 -29.148  0.00  0.00     0.389 HD
ENDBRANCH  34  39
ENDBRANCH  30  31
ENDBRANCH  29  30
ENDBRANCH  28  29
ENDBRANCH  26  28
ENDBRANCH  25  26
ENDBRANCH   4  25
BRANCH   5  41
ATOM     41  C14 <0> d   1      -0.416  22.726 -36.469  0.00  0.00     0.525 C 
ATOM     42  O8  <0> d   1      -1.598  22.670 -36.757  0.00  0.00    -0.522 OA
BRANCH  41  43
ATOM     43  O9  <0> d   1       0.426  23.467 -37.218  0.00  0.00    -0.352 OA
ATOM     44  C15 <0> d   1       0.790  22.943 -38.496  0.00  0.00     0.259 C 
ENDBRANCH  41  43
ENDBRANCH   5  41
TORSDOF 17
ENDMDL
