MODEL 1
REMARK VINA RESULT:      -7.8      0.000      0.000
REMARK  5 active torsions:
REMARK  status: ('A' for Active; 'I' for Inactive)
REMARK    1  A    between atoms: C3_3  and  O3_17 
REMARK    2  A    between atoms: C6_6  and  C7_7 
REMARK    3  A    between atoms: C8_8  and  C9_9 
REMARK    4  A    between atoms: C11_11  and  O2_16 
REMARK    5  A    between atoms: C13_13  and  O1_15 
ROOT
ATOM      1  C1  <0> d   1       0.126  19.392  -2.961  0.00  0.00     0.043 A 
ATOM      2  C2  <0> d   1       0.093  19.492  -1.588  0.00  0.00    -0.013 A 
ATOM      3  C3  <0> d   1       0.660  20.589  -0.954  0.00  0.00     0.109 A 
ATOM      4  C4  <0> d   1       1.262  21.593  -1.702  0.00  0.00    -0.012 A 
ATOM      5  C5  <0> d   1       1.300  21.503  -3.077  0.00  0.00     0.036 A 
ATOM      6  C6  <0> d   1       0.731  20.399  -3.718  0.00  0.00    -0.070 A 
ENDROOT
BRANCH   6   7
ATOM      7  C7  <0> d   1       0.770  20.298  -5.187  0.00  0.00     0.031 C 
ATOM      8  C8  <0> d   1      -0.143  20.944  -5.930  0.00  0.00     0.015 C 
BRANCH   8   9
ATOM      9  C9  <0> d   1      -0.104  20.843  -7.400  0.00  0.00    -0.021 A 
ATOM     10  C14 <0> d   1       0.877  21.522  -8.124  0.00  0.00    -0.009 A 
ATOM     11  C13 <0> d   1       0.912  21.419  -9.504  0.00  0.00     0.126 A 
ATOM     12  C12 <0> d   1      -0.033  20.651 -10.169  0.00  0.00    -0.037 A 
ATOM     13  C11 <0> d   1      -1.015  19.978  -9.454  0.00  0.00     0.127 A 
ATOM     14  C10 <0> d   1      -1.054  20.071  -8.073  0.00  0.00    -0.015 A 
BRANCH  11  15
ATOM     15  O1  <0> d   1       1.871  22.075 -10.209  0.00  0.00    -0.496 OA
ATOM     16  H10 <0> d   1       2.738  21.648 -10.186  0.00  0.00     0.394 HD
ENDBRANCH  11  15
BRANCH  13  17
ATOM     17  O2  <0> d   1      -1.937  19.228 -10.111  0.00  0.00    -0.496 OA
ATOM     18  H11 <0> d   1      -2.492  19.733 -10.723  0.00  0.00     0.394 HD
ENDBRANCH  13  17
ENDBRANCH   8   9
ENDBRANCH   6   7
BRANCH   3  19
ATOM     19  O3  <0> d   1       0.625  20.683   0.401  0.00  0.00    -0.500 OA
ATOM     20  H12 <0> d   1      -0.195  21.058   0.749  0.00  0.00     0.393 HD
ENDBRANCH   3  19
TORSDOF 5
ENDMDL
MODEL 2
REMARK VINA RESULT:      -7.8      0.476      2.366
REMARK  5 active torsions:
REMARK  status: ('A' for Active; 'I' for Inactive)
REMARK    1  A    between atoms: C3_3  and  O3_17 
REMARK    2  A    between atoms: C6_6  and  C7_7 
REMARK    3  A    between atoms: C8_8  and  C9_9 
REMARK    4  A    between atoms: C11_11  and  O2_16 
REMARK    5  A    between atoms: C13_13  and  O1_15 
ROOT
ATOM      1  C1  <0> d   1       0.980  21.953  -2.912  0.00  0.00     0.043 A 
ATOM      2  C2  <0> d   1       1.079  21.766  -1.551  0.00  0.00    -0.013 A 
ATOM      3  C3  <0> d   1       0.678  20.566  -0.980  0.00  0.00     0.109 A 
ATOM      4  C4  <0> d   1       0.174  19.547  -1.779  0.00  0.00    -0.012 A 
ATOM      5  C5  <0> d   1       0.071  19.723  -3.142  0.00  0.00     0.036 A 
ATOM      6  C6  <0> d   1       0.474  20.930  -3.720  0.00  0.00    -0.070 A 
ENDROOT
BRANCH   6   7
ATOM      7  C7  <0> d   1       0.364  21.125  -5.176  0.00  0.00     0.031 C 
ATOM      8  C8  <0> d   1       0.261  20.061  -5.990  0.00  0.00     0.015 C 
BRANCH   8   9
ATOM      9  C9  <0> d   1       0.151  20.256  -7.447  0.00  0.00    -0.021 A 
ATOM     10  C14 <0> d   1      -0.868  19.625  -8.163  0.00  0.00    -0.009 A 
ATOM     11  C13 <0> d   1      -0.969  19.816  -9.531  0.00  0.00     0.126 A 
ATOM     12  C12 <0> d   1      -0.054  20.621 -10.192  0.00  0.00    -0.037 A 
ATOM     13  C11 <0> d   1       0.965  21.246  -9.485  0.00  0.00     0.127 A 
ATOM     14  C10 <0> d   1       1.071  21.066  -8.116  0.00  0.00    -0.015 A 
BRANCH  11  15
ATOM     15  O1  <0> d   1      -1.965  19.208 -10.228  0.00  0.00    -0.496 OA
ATOM     16  H10 <0> d   1      -1.699  18.383 -10.656  0.00  0.00     0.394 HD
ENDBRANCH  11  15
BRANCH  13  17
ATOM     17  O2  <0> d   1       1.859  22.034 -10.138  0.00  0.00    -0.496 OA
ATOM     18  H11 <0> d   1       1.452  22.731 -10.672  0.00  0.00     0.394 HD
ENDBRANCH  13  17
ENDBRANCH   8   9
ENDBRANCH   6   7
BRANCH   3  19
ATOM     19  O3  <0> d   1       0.777  20.386   0.363  0.00  0.00    -0.500 OA
ATOM     20  H12 <0> d   1       0.104  19.799   0.732  0.00  0.00     0.393 HD
ENDBRANCH   3  19
TORSDOF 5
ENDMDL
MODEL 3
REMARK VINA RESULT:      -7.6      1.423      7.152
REMARK  5 active torsions:
REMARK  status: ('A' for Active; 'I' for Inactive)
REMARK    1  A    between atoms: C3_3  and  O3_17 
REMARK    2  A    between atoms: C6_6  and  C7_7 
REMARK    3  A    between atoms: C8_8  and  C9_9 
REMARK    4  A    between atoms: C11_11  and  O2_16 
REMARK    5  A    between atoms: C13_13  and  O1_15 
ROOT
ATOM      1  C1  <0> d   1      -0.439  19.769  -7.839  0.00  0.00     0.043 A 
ATOM      2  C2  <0> d   1      -0.477  19.691  -9.214  0.00  0.00    -0.013 A 
ATOM      3  C3  <0> d   1       0.064  20.710  -9.986  0.00  0.00     0.109 A 
ATOM      4  C4  <0> d   1       0.650  21.812  -9.376  0.00  0.00    -0.012 A 
ATOM      5  C5  <0> d   1       0.695  21.900  -8.002  0.00  0.00     0.036 A 
ATOM      6  C6  <0> d   1       0.149  20.877  -7.221  0.00  0.00    -0.070 A 
ENDROOT
BRANCH   6   7
ATOM      7  C7  <0> d   1       0.194  20.966  -5.752  0.00  0.00     0.031 C 
ATOM      8  C8  <0> d   1      -0.458  20.060  -5.004  0.00  0.00     0.015 C 
BRANCH   8   9
ATOM      9  C9  <0> d   1      -0.414  20.149  -3.533  0.00  0.00    -0.021 A 
ATOM     10  C14 <0> d   1       0.633  20.824  -2.903  0.00  0.00    -0.009 A 
ATOM     11  C13 <0> d   1       0.667  20.909  -1.521  0.00  0.00     0.126 A 
ATOM     12  C12 <0> d   1      -0.332  20.315  -0.762  0.00  0.00    -0.037 A 
ATOM     13  C11 <0> d   1      -1.372  19.638  -1.384  0.00  0.00     0.127 A 
ATOM     14  C10 <0> d   1      -1.417  19.552  -2.765  0.00  0.00    -0.015 A 
BRANCH  11  15
ATOM     15  O1  <0> d   1       1.682  21.571  -0.907  0.00  0.00    -0.496 OA
ATOM     16  H10 <0> d   1       1.392  22.191  -0.224  0.00  0.00     0.394 HD
ENDBRANCH  11  15
BRANCH  13  17
ATOM     17  O2  <0> d   1      -2.346  19.058  -0.635  0.00  0.00    -0.496 OA
ATOM     18  H11 <0> d   1      -2.217  19.152   0.319  0.00  0.00     0.394 HD
ENDBRANCH  13  17
ENDBRANCH   8   9
ENDBRANCH   6   7
BRANCH   3  19
ATOM     19  O3  <0> d   1       0.023  20.629 -11.341  0.00  0.00    -0.500 OA
ATOM     20  H12 <0> d   1      -0.082  19.729 -11.679  0.00  0.00     0.393 HD
ENDBRANCH   3  19
TORSDOF 5
ENDMDL
MODEL 4
REMARK VINA RESULT:      -7.6      1.413      7.428
REMARK  5 active torsions:
REMARK  status: ('A' for Active; 'I' for Inactive)
REMARK    1  A    between atoms: C3_3  and  O3_17 
REMARK    2  A    between atoms: C6_6  and  C7_7 
REMARK    3  A    between atoms: C8_8  and  C9_9 
REMARK    4  A    between atoms: C11_11  and  O2_16 
REMARK    5  A    between atoms: C13_13  and  O1_15 
ROOT
ATOM      1  C1  <0> d   1      -0.427  19.771  -7.839  0.00  0.00     0.043 A 
ATOM      2  C2  <0> d   1      -0.460  19.673  -9.212  0.00  0.00    -0.013 A 
ATOM      3  C3  <0> d   1       0.060  20.693  -9.998  0.00  0.00     0.109 A 
ATOM      4  C4  <0> d   1       0.619  21.817  -9.402  0.00  0.00    -0.012 A 
ATOM      5  C5  <0> d   1       0.658  21.925  -8.029  0.00  0.00     0.036 A 
ATOM      6  C6  <0> d   1       0.134  20.901  -7.235  0.00  0.00    -0.070 A 
ENDROOT
BRANCH   6   7
ATOM      7  C7  <0> d   1       0.173  21.012  -5.767  0.00  0.00     0.031 C 
ATOM      8  C8  <0> d   1      -0.400  20.064  -5.006  0.00  0.00     0.015 C 
BRANCH   8   9
ATOM      9  C9  <0> d   1      -0.361  20.175  -3.537  0.00  0.00    -0.021 A 
ATOM     10  C14 <0> d   1      -1.373  19.600  -2.764  0.00  0.00    -0.009 A 
ATOM     11  C13 <0> d   1      -1.329  19.703  -1.384  0.00  0.00     0.126 A 
ATOM     12  C12 <0> d   1      -0.289  20.385  -0.769  0.00  0.00    -0.037 A 
ATOM     13  C11 <0> d   1       0.715  20.963  -1.533  0.00  0.00     0.127 A 
ATOM     14  C10 <0> d   1       0.684  20.861  -2.913  0.00  0.00    -0.015 A 
BRANCH  11  15
ATOM     15  O1  <0> d   1      -2.310  19.138  -0.631  0.00  0.00    -0.496 OA
ATOM     16  H10 <0> d   1      -1.994  18.463  -0.016  0.00  0.00     0.394 HD
ENDBRANCH  11  15
BRANCH  13  17
ATOM     17  O2  <0> d   1       1.731  21.629  -0.924  0.00  0.00    -0.496 OA
ATOM     18  H11 <0> d   1       1.552  21.863  -0.002  0.00  0.00     0.394 HD
ENDBRANCH  13  17
ENDBRANCH   8   9
ENDBRANCH   6   7
BRANCH   3  19
ATOM     19  O3  <0> d   1       0.024  20.591 -11.352  0.00  0.00    -0.500 OA
ATOM     20  H12 <0> d   1      -0.498  19.845 -11.677  0.00  0.00     0.393 HD
ENDBRANCH   3  19
TORSDOF 5
ENDMDL
MODEL 5
REMARK VINA RESULT:      -7.2      1.762      7.403
REMARK  5 active torsions:
REMARK  status: ('A' for Active; 'I' for Inactive)
REMARK    1  A    between atoms: C3_3  and  O3_17 
REMARK    2  A    between atoms: C6_6  and  C7_7 
REMARK    3  A    between atoms: C8_8  and  C9_9 
REMARK    4  A    between atoms: C11_11  and  O2_16 
REMARK    5  A    between atoms: C13_13  and  O1_15 
ROOT
ATOM      1  C1  <0> d   1      -1.851  21.181  -7.546  0.00  0.00     0.043 A 
ATOM      2  C2  <0> d   1      -2.252  20.660  -8.756  0.00  0.00    -0.013 A 
ATOM      3  C3  <0> d   1      -1.628  19.533  -9.272  0.00  0.00     0.109 A 
ATOM      4  C4  <0> d   1      -0.595  18.924  -8.570  0.00  0.00    -0.012 A 
ATOM      5  C5  <0> d   1      -0.187  19.437  -7.358  0.00  0.00     0.036 A 
ATOM      6  C6  <0> d   1      -0.812  20.572  -6.836  0.00  0.00    -0.070 A 
ENDROOT
BRANCH   6   7
ATOM      7  C7  <0> d   1      -0.379  21.125  -5.541  0.00  0.00     0.031 C 
ATOM      8  C8  <0> d   1       0.064  20.304  -4.575  0.00  0.00     0.015 C 
BRANCH   8   9
ATOM      9  C9  <0> d   1       0.499  20.858  -3.279  0.00  0.00    -0.021 A 
ATOM     10  C14 <0> d   1       0.295  20.132  -2.104  0.00  0.00    -0.009 A 
ATOM     11  C13 <0> d   1       0.709  20.654  -0.890  0.00  0.00     0.126 A 
ATOM     12  C12 <0> d   1       1.316  21.901  -0.839  0.00  0.00    -0.037 A 
ATOM     13  C11 <0> d   1       1.515  22.629  -2.004  0.00  0.00     0.127 A 
ATOM     14  C10 <0> d   1       1.109  22.112  -3.223  0.00  0.00    -0.015 A 
BRANCH  11  15
ATOM     15  O1  <0> d   1       0.518  19.945   0.254  0.00  0.00    -0.496 OA
ATOM     16  H10 <0> d   1      -0.357  20.062   0.647  0.00  0.00     0.394 HD
ENDBRANCH  11  15
BRANCH  13  17
ATOM     17  O2  <0> d   1       2.110  23.849  -1.947  0.00  0.00    -0.496 OA
ATOM     18  H11 <0> d   1       2.209  24.197  -1.050  0.00  0.00     0.394 HD
ENDBRANCH  13  17
ENDBRANCH   8   9
ENDBRANCH   6   7
BRANCH   3  19
ATOM     19  O3  <0> d   1      -2.027  19.023 -10.467  0.00  0.00    -0.500 OA
ATOM     20  H12 <0> d   1      -1.312  18.924 -11.110  0.00  0.00     0.393 HD
ENDBRANCH   3  19
TORSDOF 5
ENDMDL
MODEL 6
REMARK VINA RESULT:      -7.0     15.722     20.885
REMARK  5 active torsions:
REMARK  status: ('A' for Active; 'I' for Inactive)
REMARK    1  A    between atoms: C3_3  and  O3_17 
REMARK    2  A    between atoms: C6_6  and  C7_7 
REMARK    3  A    between atoms: C8_8  and  C9_9 
REMARK    4  A    between atoms: C11_11  and  O2_16 
REMARK    5  A    between atoms: C13_13  and  O1_15 
ROOT
ATOM      1  C1  <0> d   1      -0.665  19.166 -28.106  0.00  0.00     0.043 A 
ATOM      2  C2  <0> d   1      -0.895  19.234 -29.462  0.00  0.00    -0.013 A 
ATOM      3  C3  <0> d   1      -1.252  20.440 -30.050  0.00  0.00     0.109 A 
ATOM      4  C4  <0> d   1      -1.379  21.585 -29.273  0.00  0.00    -0.012 A 
ATOM      5  C5  <0> d   1      -1.150  21.528 -27.915  0.00  0.00     0.036 A 
ATOM      6  C6  <0> d   1      -0.791  20.316 -27.320  0.00  0.00    -0.070 A 
ENDROOT
BRANCH   6   7
ATOM      7  C7  <0> d   1      -0.546  20.249 -25.869  0.00  0.00     0.031 C 
ATOM      8  C8  <0> d   1       0.040  21.280 -25.238  0.00  0.00     0.015 C 
BRANCH   8   9
ATOM      9  C9  <0> d   1       0.284  21.214 -23.786  0.00  0.00    -0.021 A 
ATOM     10  C14 <0> d   1       1.591  21.145 -23.298  0.00  0.00    -0.009 A 
ATOM     11  C13 <0> d   1       1.815  21.088 -21.933  0.00  0.00     0.126 A 
ATOM     12  C12 <0> d   1       0.745  21.088 -21.051  0.00  0.00    -0.037 A 
ATOM     13  C11 <0> d   1      -0.556  21.151 -21.531  0.00  0.00     0.127 A 
ATOM     14  C10 <0> d   1      -0.791  21.213 -22.894  0.00  0.00    -0.015 A 
BRANCH  11  15
ATOM     15  O1  <0> d   1       3.087  21.027 -21.457  0.00  0.00    -0.496 OA
ATOM     16  H10 <0> d   1       3.571  20.236 -21.727  0.00  0.00     0.394 HD
ENDBRANCH  11  15
BRANCH  13  17
ATOM     17  O2  <0> d   1      -1.600  21.150 -20.662  0.00  0.00    -0.496 OA
ATOM     18  H11 <0> d   1      -2.228  20.427 -20.801  0.00  0.00     0.394 HD
ENDBRANCH  13  17
ENDBRANCH   8   9
ENDBRANCH   6   7
BRANCH   3  19
ATOM     19  O3  <0> d   1      -1.479  20.502 -31.388  0.00  0.00    -0.500 OA
ATOM     20  H12 <0> d   1      -2.048  21.236 -31.657  0.00  0.00     0.393 HD
ENDBRANCH   3  19
TORSDOF 5
ENDMDL
MODEL 7
REMARK VINA RESULT:      -7.0     15.680     20.939
REMARK  5 active torsions:
REMARK  status: ('A' for Active; 'I' for Inactive)
REMARK    1  A    between atoms: C3_3  and  O3_17 
REMARK    2  A    between atoms: C6_6  and  C7_7 
REMARK    3  A    between atoms: C8_8  and  C9_9 
REMARK    4  A    between atoms: C11_11  and  O2_16 
REMARK    5  A    between atoms: C13_13  and  O1_15 
ROOT
ATOM      1  C1  <0> d   1      -0.429  19.261 -28.148  0.00  0.00     0.043 A 
ATOM      2  C2  <0> d   1      -0.674  19.354 -29.500  0.00  0.00    -0.013 A 
ATOM      3  C3  <0> d   1      -1.144  20.542 -30.044  0.00  0.00     0.109 A 
ATOM      4  C4  <0> d   1      -1.369  21.643 -29.227  0.00  0.00    -0.012 A 
ATOM      5  C5  <0> d   1      -1.126  21.561 -27.873  0.00  0.00     0.036 A 
ATOM      6  C6  <0> d   1      -0.653  20.366 -27.322  0.00  0.00    -0.070 A 
ENDROOT
BRANCH   6   7
ATOM      7  C7  <0> d   1      -0.393  20.272 -25.875  0.00  0.00     0.031 C 
ATOM      8  C8  <0> d   1      -0.026  21.365 -25.186  0.00  0.00     0.015 C 
BRANCH   8   9
ATOM      9  C9  <0> d   1       0.235  21.272 -23.738  0.00  0.00    -0.021 A 
ATOM     10  C14 <0> d   1      -0.829  21.265 -22.834  0.00  0.00    -0.009 A 
ATOM     11  C13 <0> d   1      -0.579  21.172 -21.476  0.00  0.00     0.126 A 
ATOM     12  C12 <0> d   1       0.726  21.096 -21.011  0.00  0.00    -0.037 A 
ATOM     13  C11 <0> d   1       1.787  21.108 -21.906  0.00  0.00     0.127 A 
ATOM     14  C10 <0> d   1       1.547  21.195 -23.267  0.00  0.00    -0.015 A 
BRANCH  11  15
ATOM     15  O1  <0> d   1      -1.614  21.159 -20.595  0.00  0.00    -0.496 OA
ATOM     16  H10 <0> d   1      -1.950  22.037 -20.369  0.00  0.00     0.394 HD
ENDBRANCH  11  15
BRANCH  13  17
ATOM     17  O2  <0> d   1       3.063  21.033 -21.445  0.00  0.00    -0.496 OA
ATOM     18  H11 <0> d   1       3.386  20.129 -21.326  0.00  0.00     0.394 HD
ENDBRANCH  13  17
ENDBRANCH   8   9
ENDBRANCH   6   7
BRANCH   3  19
ATOM     19  O3  <0> d   1      -1.386  20.628 -31.378  0.00  0.00    -0.500 OA
ATOM     20  H12 <0> d   1      -1.199  19.814 -31.865  0.00  0.00     0.393 HD
ENDBRANCH   3  19
TORSDOF 5
ENDMDL
MODEL 8
REMARK VINA RESULT:      -6.8      3.152      4.570
REMARK  5 active torsions:
REMARK  status: ('A' for Active; 'I' for Inactive)
REMARK    1  A    between atoms: C3_3  and  O3_17 
REMARK    2  A    between atoms: C6_6  and  C7_7 
REMARK    3  A    between atoms: C8_8  and  C9_9 
REMARK    4  A    between atoms: C11_11  and  O2_16 
REMARK    5  A    between atoms: C13_13  and  O1_15 
ROOT
ATOM      1  C1  <0> d   1       1.373  24.826  -1.436  0.00  0.00     0.043 A 
ATOM      2  C2  <0> d   1       0.955  25.605  -0.380  0.00  0.00    -0.013 A 
ATOM      3  C3  <0> d   1      -0.232  25.312   0.277  0.00  0.00     0.109 A 
ATOM      4  C4  <0> d   1      -1.005  24.230  -0.127  0.00  0.00    -0.012 A 
ATOM      5  C5  <0> d   1      -0.596  23.443  -1.182  0.00  0.00     0.036 A 
ATOM      6  C6  <0> d   1       0.599  23.736  -1.846  0.00  0.00    -0.070 A 
ENDROOT
BRANCH   6   7
ATOM      7  C7  <0> d   1       1.040  22.899  -2.975  0.00  0.00     0.031 C 
ATOM      8  C8  <0> d   1       0.377  21.770  -3.274  0.00  0.00     0.015 C 
BRANCH   8   9
ATOM      9  C9  <0> d   1       0.819  20.932  -4.404  0.00  0.00    -0.021 A 
ATOM     10  C14 <0> d   1       0.060  20.878  -5.574  0.00  0.00    -0.009 A 
ATOM     11  C13 <0> d   1       0.482  20.094  -6.634  0.00  0.00     0.126 A 
ATOM     12  C12 <0> d   1       1.650  19.353  -6.531  0.00  0.00    -0.037 A 
ATOM     13  C11 <0> d   1       2.405  19.399  -5.367  0.00  0.00     0.127 A 
ATOM     14  C10 <0> d   1       1.995  20.185  -4.303  0.00  0.00    -0.015 A 
BRANCH  11  15
ATOM     15  O1  <0> d   1      -0.253  20.045  -7.777  0.00  0.00    -0.496 OA
ATOM     16  H10 <0> d   1      -1.208  20.048  -7.631  0.00  0.00     0.394 HD
ENDBRANCH  11  15
BRANCH  13  17
ATOM     17  O2  <0> d   1       3.549  18.672  -5.272  0.00  0.00    -0.496 OA
ATOM     18  H11 <0> d   1       4.143  18.963  -4.566  0.00  0.00     0.394 HD
ENDBRANCH  13  17
ENDBRANCH   8   9
ENDBRANCH   6   7
BRANCH   3  19
ATOM     19  O3  <0> d   1      -0.640  26.084   1.317  0.00  0.00    -0.500 OA
ATOM     20  H12 <0> d   1      -1.600  26.127   1.423  0.00  0.00     0.393 HD
ENDBRANCH   3  19
TORSDOF 5
ENDMDL
MODEL 9
REMARK VINA RESULT:      -6.7      3.218      7.506
REMARK  5 active torsions:
REMARK  status: ('A' for Active; 'I' for Inactive)
REMARK    1  A    between atoms: C3_3  and  O3_17 
REMARK    2  A    between atoms: C6_6  and  C7_7 
REMARK    3  A    between atoms: C8_8  and  C9_9 
REMARK    4  A    between atoms: C11_11  and  O2_16 
REMARK    5  A    between atoms: C13_13  and  O1_15 
ROOT
ATOM      1  C1  <0> d   1       1.747  20.261  -4.172  0.00  0.00     0.043 A 
ATOM      2  C2  <0> d   1       2.127  19.418  -5.193  0.00  0.00    -0.013 A 
ATOM      3  C3  <0> d   1       1.488  19.480  -6.424  0.00  0.00     0.109 A 
ATOM      4  C4  <0> d   1       0.462  20.393  -6.632  0.00  0.00    -0.012 A 
ATOM      5  C5  <0> d   1       0.074  21.241  -5.618  0.00  0.00     0.036 A 
ATOM      6  C6  <0> d   1       0.715  21.181  -4.377  0.00  0.00    -0.070 A 
ENDROOT
BRANCH   6   7
ATOM      7  C7  <0> d   1       0.303  22.085  -3.289  0.00  0.00     0.031 C 
ATOM      8  C8  <0> d   1       1.157  23.014  -2.828  0.00  0.00     0.015 C 
BRANCH   8   9
ATOM      9  C9  <0> d   1       0.746  23.918  -1.739  0.00  0.00    -0.021 A 
ATOM     10  C14 <0> d   1       1.527  25.030  -1.418  0.00  0.00    -0.009 A 
ATOM     11  C13 <0> d   1       1.133  25.879  -0.398  0.00  0.00     0.126 A 
ATOM     12  C12 <0> d   1      -0.029  25.620   0.313  0.00  0.00    -0.037 A 
ATOM     13  C11 <0> d   1      -0.807  24.513   0.003  0.00  0.00     0.127 A 
ATOM     14  C10 <0> d   1      -0.424  23.661  -1.020  0.00  0.00    -0.015 A 
BRANCH  11  15
ATOM     15  O1  <0> d   1       1.890  26.965  -0.089  0.00  0.00    -0.496 OA
ATOM     16  H10 <0> d   1       2.842  26.808  -0.136  0.00  0.00     0.394 HD
ENDBRANCH  11  15
BRANCH  13  17
ATOM     17  O2  <0> d   1      -1.944  24.265   0.703  0.00  0.00    -0.496 OA
ATOM     18  H11 <0> d   1      -2.211  23.335   0.704  0.00  0.00     0.394 HD
ENDBRANCH  13  17
ENDBRANCH   8   9
ENDBRANCH   6   7
BRANCH   3  19
ATOM     19  O3  <0> d   1       1.866  18.646  -7.427  0.00  0.00    -0.500 OA
ATOM     20  H12 <0> d   1       1.575  17.732  -7.309  0.00  0.00     0.393 HD
ENDBRANCH   3  19
TORSDOF 5
ENDMDL
MODEL 10
REMARK VINA RESULT:      -6.6     16.355     20.388
REMARK  5 active torsions:
REMARK  status: ('A' for Active; 'I' for Inactive)
REMARK    1  A    between atoms: C3_3  and  O3_17 
REMARK    2  A    between atoms: C6_6  and  C7_7 
REMARK    3  A    between atoms: C8_8  and  C9_9 
REMARK    4  A    between atoms: C11_11  and  O2_16 
REMARK    5  A    between atoms: C13_13  and  O1_15 
ROOT
ATOM      1  C1  <0> d   1      -0.315  21.827 -23.390  0.00  0.00     0.043 A 
ATOM      2  C2  <0> d   1      -0.391  21.832 -22.015  0.00  0.00    -0.013 A 
ATOM      3  C3  <0> d   1       0.010  20.718 -21.290  0.00  0.00     0.109 A 
ATOM      4  C4  <0> d   1       0.491  19.593 -21.948  0.00  0.00    -0.012 A 
ATOM      5  C5  <0> d   1       0.572  19.578 -23.324  0.00  0.00     0.036 A 
ATOM      6  C6  <0> d   1       0.169  20.697 -24.057  0.00  0.00    -0.070 A 
ENDROOT
BRANCH   6   7
ATOM      7  C7  <0> d   1       0.252  20.686 -25.527  0.00  0.00     0.031 C 
ATOM      8  C8  <0> d   1      -0.568  19.898 -26.241  0.00  0.00     0.015 C 
BRANCH   8   9
ATOM      9  C9  <0> d   1      -0.485  19.886 -27.713  0.00  0.00    -0.021 A 
ATOM     10  C14 <0> d   1       0.719  19.568 -28.344  0.00  0.00    -0.009 A 
ATOM     11  C13 <0> d   1       0.790  19.553 -29.727  0.00  0.00     0.126 A 
ATOM     12  C12 <0> d   1      -0.329  19.866 -30.485  0.00  0.00    -0.037 A 
ATOM     13  C11 <0> d   1      -1.527  20.190 -29.862  0.00  0.00     0.127 A 
ATOM     14  C10 <0> d   1      -1.609  20.201 -28.480  0.00  0.00    -0.015 A 
BRANCH  11  15
ATOM     15  O1  <0> d   1       1.959  19.237 -30.343  0.00  0.00    -0.496 OA
ATOM     16  H10 <0> d   1       2.747  19.531 -29.866  0.00  0.00     0.394 HD
ENDBRANCH  11  15
BRANCH  13  17
ATOM     17  O2  <0> d   1      -2.619  20.495 -30.610  0.00  0.00    -0.496 OA
ATOM     18  H11 <0> d   1      -2.563  20.195 -31.529  0.00  0.00     0.394 HD
ENDBRANCH  13  17
ENDBRANCH   8   9
ENDBRANCH   6   7
BRANCH   3  19
ATOM     19  O3  <0> d   1      -0.068  20.727 -19.934  0.00  0.00    -0.500 OA
ATOM     20  H12 <0> d   1       0.557  20.131 -19.500  0.00  0.00     0.393 HD
ENDBRANCH   3  19
TORSDOF 5
ENDMDL
MODEL 11
REMARK VINA RESULT:      -6.6     16.302     20.317
REMARK  5 active torsions:
REMARK  status: ('A' for Active; 'I' for Inactive)
REMARK    1  A    between atoms: C3_3  and  O3_17 
REMARK    2  A    between atoms: C6_6  and  C7_7 
REMARK    3  A    between atoms: C8_8  and  C9_9 
REMARK    4  A    between atoms: C11_11  and  O2_16 
REMARK    5  A    between atoms: C13_13  and  O1_15 
ROOT
ATOM      1  C1  <0> d   1       0.225  19.636 -23.494  0.00  0.00     0.043 A 
ATOM      2  C2  <0> d   1       0.392  19.466 -22.137  0.00  0.00    -0.013 A 
ATOM      3  C3  <0> d   1       0.033  20.478 -21.257  0.00  0.00     0.109 A 
ATOM      4  C4  <0> d   1      -0.499  21.667 -21.740  0.00  0.00    -0.012 A 
ATOM      5  C5  <0> d   1      -0.671  21.847 -23.096  0.00  0.00     0.036 A 
ATOM      6  C6  <0> d   1      -0.309  20.831 -23.985  0.00  0.00    -0.070 A 
ENDROOT
BRANCH   6   7
ATOM      7  C7  <0> d   1      -0.490  21.019 -25.434  0.00  0.00     0.031 C 
ATOM      8  C8  <0> d   1       0.574  21.252 -26.220  0.00  0.00     0.015 C 
BRANCH   8   9
ATOM      9  C9  <0> d   1       0.394  21.440 -27.671  0.00  0.00    -0.021 A 
ATOM     10  C14 <0> d   1       1.459  21.215 -28.544  0.00  0.00    -0.009 A 
ATOM     11  C13 <0> d   1       1.283  21.388 -29.906  0.00  0.00     0.126 A 
ATOM     12  C12 <0> d   1       0.053  21.795 -30.403  0.00  0.00    -0.037 A 
ATOM     13  C11 <0> d   1      -1.008  22.026 -29.538  0.00  0.00     0.127 A 
ATOM     14  C10 <0> d   1      -0.842  21.850 -28.174  0.00  0.00    -0.015 A 
BRANCH  11  15
ATOM     15  O1  <0> d   1       2.317  21.162 -30.759  0.00  0.00    -0.496 OA
ATOM     16  H10 <0> d   1       2.053  20.783 -31.607  0.00  0.00     0.394 HD
ENDBRANCH  11  15
BRANCH  13  17
ATOM     17  O2  <0> d   1      -2.209  22.425 -30.031  0.00  0.00    -0.496 OA
ATOM     18  H11 <0> d   1      -2.832  21.701 -30.182  0.00  0.00     0.394 HD
ENDBRANCH  13  17
ENDBRANCH   8   9
ENDBRANCH   6   7
BRANCH   3  19
ATOM     19  O3  <0> d   1       0.200  20.305 -19.920  0.00  0.00    -0.500 OA
ATOM     20  H12 <0> d   1       0.673  19.496 -19.684  0.00  0.00     0.393 HD
ENDBRANCH   3  19
TORSDOF 5
ENDMDL
MODEL 12
REMARK VINA RESULT:      -6.6     16.329     20.380
REMARK  5 active torsions:
REMARK  status: ('A' for Active; 'I' for Inactive)
REMARK    1  A    between atoms: C3_3  and  O3_17 
REMARK    2  A    between atoms: C6_6  and  C7_7 
REMARK    3  A    between atoms: C8_8  and  C9_9 
REMARK    4  A    between atoms: C11_11  and  O2_16 
REMARK    5  A    between atoms: C13_13  and  O1_15 
ROOT
ATOM      1  C1  <0> d   1       0.250  19.601 -23.509  0.00  0.00     0.043 A 
ATOM      2  C2  <0> d   1       0.454  19.448 -22.156  0.00  0.00    -0.013 A 
ATOM      3  C3  <0> d   1       0.097  20.462 -21.278  0.00  0.00     0.109 A 
ATOM      4  C4  <0> d   1      -0.467  21.637 -21.759  0.00  0.00    -0.012 A 
ATOM      5  C5  <0> d   1      -0.677  21.799 -23.112  0.00  0.00     0.036 A 
ATOM      6  C6  <0> d   1      -0.319  20.781 -23.999  0.00  0.00    -0.070 A 
ENDROOT
BRANCH   6   7
ATOM      7  C7  <0> d   1      -0.539  20.950 -25.445  0.00  0.00     0.031 C 
ATOM      8  C8  <0> d   1      -0.691  19.872 -26.233  0.00  0.00     0.015 C 
BRANCH   8   9
ATOM      9  C9  <0> d   1      -0.911  20.041 -27.681  0.00  0.00    -0.021 A 
ATOM     10  C14 <0> d   1      -0.618  18.998 -28.560  0.00  0.00    -0.009 A 
ATOM     11  C13 <0> d   1      -0.832  19.160 -29.919  0.00  0.00     0.126 A 
ATOM     12  C12 <0> d   1      -1.326  20.361 -30.407  0.00  0.00    -0.037 A 
ATOM     13  C11 <0> d   1      -1.613  21.404 -29.537  0.00  0.00     0.127 A 
ATOM     14  C10 <0> d   1      -1.408  21.249 -28.176  0.00  0.00    -0.015 A 
BRANCH  11  15
ATOM     15  O1  <0> d   1      -0.553  18.143 -30.776  0.00  0.00    -0.496 OA
ATOM     16  H10 <0> d   1      -1.336  17.703 -31.132  0.00  0.00     0.394 HD
ENDBRANCH  11  15
BRANCH  13  17
ATOM     17  O2  <0> d   1      -2.097  22.577 -30.022  0.00  0.00    -0.496 OA
ATOM     18  H11 <0> d   1      -1.414  23.236 -30.212  0.00  0.00     0.394 HD
ENDBRANCH  13  17
ENDBRANCH   8   9
ENDBRANCH   6   7
BRANCH   3  19
ATOM     19  O3  <0> d   1       0.301  20.307 -19.944  0.00  0.00    -0.500 OA
ATOM     20  H12 <0> d   1       0.369  21.139 -19.456  0.00  0.00     0.393 HD
ENDBRANCH   3  19
TORSDOF 5
ENDMDL
MODEL 13
REMARK VINA RESULT:      -6.6     16.309     20.384
REMARK  5 active torsions:
REMARK  status: ('A' for Active; 'I' for Inactive)
REMARK    1  A    between atoms: C3_3  and  O3_17 
REMARK    2  A    between atoms: C6_6  and  C7_7 
REMARK    3  A    between atoms: C8_8  and  C9_9 
REMARK    4  A    between atoms: C11_11  and  O2_16 
REMARK    5  A    between atoms: C13_13  and  O1_15 
ROOT
ATOM      1  C1  <0> d   1       0.567  19.639 -23.339  0.00  0.00     0.043 A 
ATOM      2  C2  <0> d   1       0.527  19.582 -21.963  0.00  0.00    -0.013 A 
ATOM      3  C3  <0> d   1       0.022  20.651 -21.235  0.00  0.00     0.109 A 
ATOM      4  C4  <0> d   1      -0.446  21.783 -21.890  0.00  0.00    -0.012 A 
ATOM      5  C5  <0> d   1      -0.412  21.850 -23.266  0.00  0.00     0.036 A 
ATOM      6  C6  <0> d   1       0.097  20.776 -24.003  0.00  0.00    -0.070 A 
ENDROOT
BRANCH   6   7
ATOM      7  C7  <0> d   1       0.138  20.842 -25.474  0.00  0.00     0.031 C 
ATOM      8  C8  <0> d   1      -0.461  19.889 -26.206  0.00  0.00     0.015 C 
BRANCH   8   9
ATOM      9  C9  <0> d   1      -0.421  19.955 -27.678  0.00  0.00    -0.021 A 
ATOM     10  C14 <0> d   1      -1.582  20.238 -28.399  0.00  0.00    -0.009 A 
ATOM     11  C13 <0> d   1      -1.537  20.304 -29.781  0.00  0.00     0.126 A 
ATOM     12  C12 <0> d   1      -0.343  20.079 -30.451  0.00  0.00    -0.037 A 
ATOM     13  C11 <0> d   1       0.813  19.792 -29.739  0.00  0.00     0.127 A 
ATOM     14  C10 <0> d   1       0.780  19.729 -28.356  0.00  0.00    -0.015 A 
BRANCH  11  15
ATOM     15  O1  <0> d   1      -2.666  20.586 -30.484  0.00  0.00    -0.496 OA
ATOM     16  H10 <0> d   1      -2.828  21.531 -30.608  0.00  0.00     0.394 HD
ENDBRANCH  11  15
BRANCH  13  17
ATOM     17  O2  <0> d   1       1.979  19.573 -30.401  0.00  0.00    -0.496 OA
ATOM     18  H11 <0> d   1       2.697  19.250 -29.837  0.00  0.00     0.394 HD
ENDBRANCH  13  17
ENDBRANCH   8   9
ENDBRANCH   6   7
BRANCH   3  19
ATOM     19  O3  <0> d   1      -0.014  20.591 -19.879  0.00  0.00    -0.500 OA
ATOM     20  H12 <0> d   1      -0.875  20.336 -19.519  0.00  0.00     0.393 HD
ENDBRANCH   3  19
TORSDOF 5
ENDMDL
MODEL 14
REMARK VINA RESULT:      -6.5     16.634     20.744
REMARK  5 active torsions:
REMARK  status: ('A' for Active; 'I' for Inactive)
REMARK    1  A    between atoms: C3_3  and  O3_17 
REMARK    2  A    between atoms: C6_6  and  C7_7 
REMARK    3  A    between atoms: C8_8  and  C9_9 
REMARK    4  A    between atoms: C11_11  and  O2_16 
REMARK    5  A    between atoms: C13_13  and  O1_15 
ROOT
ATOM      1  C1  <0> d   1      -0.135  19.349 -23.422  0.00  0.00     0.043 A 
ATOM      2  C2  <0> d   1      -0.663  19.649 -22.185  0.00  0.00    -0.013 A 
ATOM      3  C3  <0> d   1      -0.945  20.965 -21.848  0.00  0.00     0.109 A 
ATOM      4  C4  <0> d   1      -0.697  21.987 -22.756  0.00  0.00    -0.012 A 
ATOM      5  C5  <0> d   1      -0.169  21.698 -23.996  0.00  0.00     0.036 A 
ATOM      6  C6  <0> d   1       0.117  20.374 -24.339  0.00  0.00    -0.070 A 
ENDROOT
BRANCH   6   7
ATOM      7  C7  <0> d   1       0.682  20.059 -25.662  0.00  0.00     0.031 C 
ATOM      8  C8  <0> d   1       0.487  20.898 -26.693  0.00  0.00     0.015 C 
BRANCH   8   9
ATOM      9  C9  <0> d   1       1.053  20.583 -28.017  0.00  0.00    -0.021 A 
ATOM     10  C14 <0> d   1       1.517  19.296 -28.293  0.00  0.00    -0.009 A 
ATOM     11  C13 <0> d   1       2.042  19.005 -29.540  0.00  0.00     0.126 A 
ATOM     12  C12 <0> d   1       2.119  19.992 -30.512  0.00  0.00    -0.037 A 
ATOM     13  C11 <0> d   1       1.664  21.275 -30.241  0.00  0.00     0.127 A 
ATOM     14  C10 <0> d   1       1.131  21.575 -28.998  0.00  0.00    -0.015 A 
BRANCH  11  15
ATOM     15  O1  <0> d   1       2.489  17.750 -29.812  0.00  0.00    -0.496 OA
ATOM     16  H10 <0> d   1       1.802  17.148 -30.130  0.00  0.00     0.394 HD
ENDBRANCH  11  15
BRANCH  13  17
ATOM     17  O2  <0> d   1       1.741  22.238 -31.196  0.00  0.00    -0.496 OA
ATOM     18  H11 <0> d   1       2.549  22.768 -31.156  0.00  0.00     0.394 HD
ENDBRANCH  13  17
ENDBRANCH   8   9
ENDBRANCH   6   7
BRANCH   3  19
ATOM     19  O3  <0> d   1      -1.465  21.256 -20.627  0.00  0.00    -0.500 OA
ATOM     20  H12 <0> d   1      -1.356  20.550 -19.975  0.00  0.00     0.393 HD
ENDBRANCH   3  19
TORSDOF 5
ENDMDL
MODEL 15
REMARK VINA RESULT:      -6.4     16.783     20.833
REMARK  5 active torsions:
REMARK  status: ('A' for Active; 'I' for Inactive)
REMARK    1  A    between atoms: C3_3  and  O3_17 
REMARK    2  A    between atoms: C6_6  and  C7_7 
REMARK    3  A    between atoms: C8_8  and  C9_9 
REMARK    4  A    between atoms: C11_11  and  O2_16 
REMARK    5  A    between atoms: C13_13  and  O1_15 
ROOT
ATOM      1  C1  <0> d   1      -0.022  19.159 -23.799  0.00  0.00     0.043 A 
ATOM      2  C2  <0> d   1       0.431  19.194 -22.499  0.00  0.00    -0.013 A 
ATOM      3  C3  <0> d   1       1.078  20.324 -22.016  0.00  0.00     0.109 A 
ATOM      4  C4  <0> d   1       1.270  21.425 -22.841  0.00  0.00    -0.012 A 
ATOM      5  C5  <0> d   1       0.819  21.400 -24.143  0.00  0.00     0.036 A 
ATOM      6  C6  <0> d   1       0.169  20.264 -24.633  0.00  0.00    -0.070 A 
ENDROOT
BRANCH   6   7
ATOM      7  C7  <0> d   1      -0.313  20.232 -26.024  0.00  0.00     0.031 C 
ATOM      8  C8  <0> d   1      -0.669  21.372 -26.639  0.00  0.00     0.015 C 
BRANCH   8   9
ATOM      9  C9  <0> d   1      -1.151  21.340 -28.032  0.00  0.00    -0.021 A 
ATOM     10  C14 <0> d   1      -1.666  22.496 -28.622  0.00  0.00    -0.009 A 
ATOM     11  C13 <0> d   1      -2.113  22.461 -29.932  0.00  0.00     0.126 A 
ATOM     12  C12 <0> d   1      -2.061  21.278 -30.655  0.00  0.00    -0.037 A 
ATOM     13  C11 <0> d   1      -1.555  20.125 -30.071  0.00  0.00     0.127 A 
ATOM     14  C10 <0> d   1      -1.100  20.151 -28.763  0.00  0.00    -0.015 A 
BRANCH  11  15
ATOM     15  O1  <0> d   1      -2.609  23.587 -30.509  0.00  0.00    -0.496 OA
ATOM     16  H10 <0> d   1      -3.571  23.663 -30.463  0.00  0.00     0.394 HD
ENDBRANCH  11  15
BRANCH  13  17
ATOM     17  O2  <0> d   1      -1.507  18.970 -30.784  0.00  0.00    -0.496 OA
ATOM     18  H11 <0> d   1      -0.656  18.809 -31.216  0.00  0.00     0.394 HD
ENDBRANCH  13  17
ENDBRANCH   8   9
ENDBRANCH   6   7
BRANCH   3  19
ATOM     19  O3  <0> d   1       1.524  20.354 -20.733  0.00  0.00    -0.500 OA
ATOM     20  H12 <0> d   1       1.443  19.510 -20.269  0.00  0.00     0.393 HD
ENDBRANCH   3  19
TORSDOF 5
ENDMDL
MODEL 16
REMARK VINA RESULT:      -6.4     17.257     21.227
REMARK  5 active torsions:
REMARK  status: ('A' for Active; 'I' for Inactive)
REMARK    1  A    between atoms: C3_3  and  O3_17 
REMARK    2  A    between atoms: C6_6  and  C7_7 
REMARK    3  A    between atoms: C8_8  and  C9_9 
REMARK    4  A    between atoms: C11_11  and  O2_16 
REMARK    5  A    between atoms: C13_13  and  O1_15 
ROOT
ATOM      1  C1  <0> d   1      -1.011  19.115 -24.610  0.00  0.00     0.043 A 
ATOM      2  C2  <0> d   1      -1.705  18.849 -23.451  0.00  0.00    -0.013 A 
ATOM      3  C3  <0> d   1      -2.030  19.880 -22.580  0.00  0.00     0.109 A 
ATOM      4  C4  <0> d   1      -1.659  21.186 -22.875  0.00  0.00    -0.012 A 
ATOM      5  C5  <0> d   1      -0.966  21.463 -24.033  0.00  0.00     0.036 A 
ATOM      6  C6  <0> d   1      -0.635  20.428 -24.911  0.00  0.00    -0.070 A 
ENDROOT
BRANCH   6   7
ATOM      7  C7  <0> d   1       0.107  20.718 -26.150  0.00  0.00     0.031 C 
ATOM      8  C8  <0> d   1      -0.520  21.291 -27.190  0.00  0.00     0.015 C 
BRANCH   8   9
ATOM      9  C9  <0> d   1       0.223  21.582 -28.430  0.00  0.00    -0.021 A 
ATOM     10  C14 <0> d   1       0.102  22.831 -29.042  0.00  0.00    -0.009 A 
ATOM     11  C13 <0> d   1       0.806  23.101 -30.203  0.00  0.00     0.126 A 
ATOM     12  C12 <0> d   1       1.621  22.129 -30.766  0.00  0.00    -0.037 A 
ATOM     13  C11 <0> d   1       1.739  20.883 -30.164  0.00  0.00     0.127 A 
ATOM     14  C10 <0> d   1       1.044  20.606 -28.999  0.00  0.00    -0.015 A 
BRANCH  11  15
ATOM     15  O1  <0> d   1       0.695  24.319 -30.796  0.00  0.00    -0.496 OA
ATOM     16  H10 <0> d   1      -0.069  24.832 -30.501  0.00  0.00     0.394 HD
ENDBRANCH  11  15
BRANCH  13  17
ATOM     17  O2  <0> d   1       2.539  19.936 -30.720  0.00  0.00    -0.496 OA
ATOM     18  H11 <0> d   1       2.267  19.663 -31.607  0.00  0.00     0.394 HD
ENDBRANCH  13  17
ENDBRANCH   8   9
ENDBRANCH   6   7
BRANCH   3  19
ATOM     19  O3  <0> d   1      -2.714  19.612 -21.437  0.00  0.00    -0.500 OA
ATOM     20  H12 <0> d   1      -3.052  20.398 -20.987  0.00  0.00     0.393 HD
ENDBRANCH   3  19
TORSDOF 5
ENDMDL
MODEL 17
REMARK VINA RESULT:      -6.0     21.729     24.922
REMARK  5 active torsions:
REMARK  status: ('A' for Active; 'I' for Inactive)
REMARK    1  A    between atoms: C3_3  and  O3_17 
REMARK    2  A    between atoms: C6_6  and  C7_7 
REMARK    3  A    between atoms: C8_8  and  C9_9 
REMARK    4  A    between atoms: C11_11  and  O2_16 
REMARK    5  A    between atoms: C13_13  and  O1_15 
ROOT
ATOM      1  C1  <0> d   1      -1.726  21.696 -28.056  0.00  0.00     0.043 A 
ATOM      2  C2  <0> d   1      -1.042  20.776 -27.294  0.00  0.00    -0.013 A 
ATOM      3  C3  <0> d   1       0.346  20.778 -27.276  0.00  0.00     0.109 A 
ATOM      4  C4  <0> d   1       1.053  21.709 -28.026  0.00  0.00    -0.012 A 
ATOM      5  C5  <0> d   1       0.378  22.635 -28.792  0.00  0.00     0.036 A 
ATOM      6  C6  <0> d   1      -1.019  22.636 -28.813  0.00  0.00    -0.070 A 
ENDROOT
BRANCH   6   7
ATOM      7  C7  <0> d   1      -1.745  23.622 -29.631  0.00  0.00     0.031 C 
ATOM      8  C8  <0> d   1      -1.071  24.593 -30.270  0.00  0.00     0.015 C 
BRANCH   8   9
ATOM      9  C9  <0> d   1      -1.797  25.580 -31.089  0.00  0.00    -0.021 A 
ATOM     10  C14 <0> d   1      -3.193  25.608 -31.078  0.00  0.00    -0.009 A 
ATOM     11  C13 <0> d   1      -3.870  26.542 -31.845  0.00  0.00     0.126 A 
ATOM     12  C12 <0> d   1      -3.164  27.440 -32.632  0.00  0.00    -0.037 A 
ATOM     13  C11 <0> d   1      -1.776  27.412 -32.650  0.00  0.00     0.127 A 
ATOM     14  C10 <0> d   1      -1.090  26.487 -31.882  0.00  0.00    -0.015 A 
BRANCH  11  15
ATOM     15  O1  <0> d   1      -5.228  26.574 -31.830  0.00  0.00    -0.496 OA
ATOM     16  H10 <0> d   1      -5.621  26.258 -31.006  0.00  0.00     0.394 HD
ENDBRANCH  11  15
BRANCH  13  17
ATOM     17  O2  <0> d   1      -1.091  28.295 -33.422  0.00  0.00    -0.496 OA
ATOM     18  H11 <0> d   1      -0.130  28.231 -33.336  0.00  0.00     0.394 HD
ENDBRANCH  13  17
ENDBRANCH   8   9
ENDBRANCH   6   7
BRANCH   3  19
ATOM     19  O3  <0> d   1       1.016  19.867 -26.522  0.00  0.00    -0.500 OA
ATOM     20  H12 <0> d   1       0.986  20.044 -25.572  0.00  0.00     0.393 HD
ENDBRANCH   3  19
TORSDOF 5
ENDMDL
MODEL 18
REMARK VINA RESULT:      -5.9      5.542      9.559
REMARK  5 active torsions:
REMARK  status: ('A' for Active; 'I' for Inactive)
REMARK    1  A    between atoms: C3_3  and  O3_17 
REMARK    2  A    between atoms: C6_6  and  C7_7 
REMARK    3  A    between atoms: C8_8  and  C9_9 
REMARK    4  A    between atoms: C11_11  and  O2_16 
REMARK    5  A    between atoms: C13_13  and  O1_15 
ROOT
ATOM      1  C1  <0> d   1       0.240  18.047  -1.987  0.00  0.00     0.043 A 
ATOM      2  C2  <0> d   1       0.512  19.093  -2.840  0.00  0.00    -0.013 A 
ATOM      3  C3  <0> d   1      -0.524  19.851  -3.368  0.00  0.00     0.109 A 
ATOM      4  C4  <0> d   1      -1.841  19.560  -3.037  0.00  0.00    -0.012 A 
ATOM      5  C5  <0> d   1      -2.125  18.516  -2.183  0.00  0.00     0.036 A 
ATOM      6  C6  <0> d   1      -1.084  17.749  -1.651  0.00  0.00    -0.070 A 
ENDROOT
BRANCH   6   7
ATOM      7  C7  <0> d   1      -1.382  16.632  -0.739  0.00  0.00     0.031 C 
ATOM      8  C8  <0> d   1      -0.636  15.516  -0.777  0.00  0.00     0.015 C 
BRANCH   8   9
ATOM      9  C9  <0> d   1      -0.933  14.397   0.135  0.00  0.00    -0.021 A 
ATOM     10  C14 <0> d   1       0.105  13.622   0.656  0.00  0.00    -0.009 A 
ATOM     11  C13 <0> d   1      -0.180  12.576   1.517  0.00  0.00     0.126 A 
ATOM     12  C12 <0> d   1      -1.495  12.289   1.853  0.00  0.00    -0.037 A 
ATOM     13  C11 <0> d   1      -2.531  13.053   1.334  0.00  0.00     0.127 A 
ATOM     14  C10 <0> d   1      -2.256  14.105   0.476  0.00  0.00    -0.015 A 
BRANCH  11  15
ATOM     15  O1  <0> d   1       0.831  11.825   2.030  0.00  0.00    -0.496 OA
ATOM     16  H10 <0> d   1       1.410  12.306   2.635  0.00  0.00     0.394 HD
ENDBRANCH  11  15
BRANCH  13  17
ATOM     17  O2  <0> d   1      -3.816  12.767   1.667  0.00  0.00    -0.496 OA
ATOM     18  H11 <0> d   1      -4.084  11.860   1.462  0.00  0.00     0.394 HD
ENDBRANCH  13  17
ENDBRANCH   8   9
ENDBRANCH   6   7
BRANCH   3  19
ATOM     19  O3  <0> d   1      -0.250  20.881  -4.210  0.00  0.00    -0.500 OA
ATOM     20  H12 <0> d   1       0.625  21.272  -4.082  0.00  0.00     0.393 HD
ENDBRANCH   3  19
TORSDOF 5
ENDMDL
MODEL 19
REMARK VINA RESULT:      -5.9      5.577      9.718
REMARK  5 active torsions:
REMARK  status: ('A' for Active; 'I' for Inactive)
REMARK    1  A    between atoms: C3_3  and  O3_17 
REMARK    2  A    between atoms: C6_6  and  C7_7 
REMARK    3  A    between atoms: C8_8  and  C9_9 
REMARK    4  A    between atoms: C11_11  and  O2_16 
REMARK    5  A    between atoms: C13_13  and  O1_15 
ROOT
ATOM      1  C1  <0> d   1       0.210  18.011  -1.930  0.00  0.00     0.043 A 
ATOM      2  C2  <0> d   1       0.513  19.079  -2.744  0.00  0.00    -0.013 A 
ATOM      3  C3  <0> d   1      -0.504  19.832  -3.315  0.00  0.00     0.109 A 
ATOM      4  C4  <0> d   1      -1.833  19.513  -3.067  0.00  0.00    -0.012 A 
ATOM      5  C5  <0> d   1      -2.147  18.447  -2.252  0.00  0.00     0.036 A 
ATOM      6  C6  <0> d   1      -1.127  17.686  -1.677  0.00  0.00    -0.070 A 
ENDROOT
BRANCH   6   7
ATOM      7  C7  <0> d   1      -1.457  16.544  -0.807  0.00  0.00     0.031 C 
ATOM      8  C8  <0> d   1      -0.597  15.519  -0.687  0.00  0.00     0.015 C 
BRANCH   8   9
ATOM      9  C9  <0> d   1      -0.928  14.376   0.184  0.00  0.00    -0.021 A 
ATOM     10  C14 <0> d   1      -2.259  14.099   0.500  0.00  0.00    -0.009 A 
ATOM     11  C13 <0> d   1      -2.565  13.021   1.314  0.00  0.00     0.126 A 
ATOM     12  C12 <0> d   1      -1.550  12.224   1.824  0.00  0.00    -0.037 A 
ATOM     13  C11 <0> d   1      -0.225  12.500   1.517  0.00  0.00     0.127 A 
ATOM     14  C10 <0> d   1       0.091  13.572   0.699  0.00  0.00    -0.015 A 
BRANCH  11  15
ATOM     15  O1  <0> d   1      -3.861  12.746   1.618  0.00  0.00    -0.496 OA
ATOM     16  H10 <0> d   1      -4.390  12.461   0.861  0.00  0.00     0.394 HD
ENDBRANCH  11  15
BRANCH  13  17
ATOM     17  O2  <0> d   1       0.764  11.715   2.020  0.00  0.00    -0.496 OA
ATOM     18  H11 <0> d   1       0.767  11.656   2.986  0.00  0.00     0.394 HD
ENDBRANCH  13  17
ENDBRANCH   8   9
ENDBRANCH   6   7
BRANCH   3  19
ATOM     19  O3  <0> d   1      -0.199  20.885  -4.118  0.00  0.00    -0.500 OA
ATOM     20  H12 <0> d   1       0.661  21.286  -3.932  0.00  0.00     0.393 HD
ENDBRANCH   3  19
TORSDOF 5
ENDMDL
MODEL 20
REMARK VINA RESULT:      -5.9      3.929      8.535
REMARK  5 active torsions:
REMARK  status: ('A' for Active; 'I' for Inactive)
REMARK    1  A    between atoms: C3_3  and  O3_17 
REMARK    2  A    between atoms: C6_6  and  C7_7 
REMARK    3  A    between atoms: C8_8  and  C9_9 
REMARK    4  A    between atoms: C11_11  and  O2_16 
REMARK    5  A    between atoms: C13_13  and  O1_15 
ROOT
ATOM      1  C1  <0> d   1       0.845  19.368  -3.550  0.00  0.00     0.043 A 
ATOM      2  C2  <0> d   1       1.106  20.177  -4.634  0.00  0.00    -0.013 A 
ATOM      3  C3  <0> d   1       0.113  21.001  -5.144  0.00  0.00     0.109 A 
ATOM      4  C4  <0> d   1      -1.149  21.016  -4.564  0.00  0.00    -0.012 A 
ATOM      5  C5  <0> d   1      -1.421  20.211  -3.479  0.00  0.00     0.036 A 
ATOM      6  C6  <0> d   1      -0.423  19.379  -2.962  0.00  0.00    -0.070 A 
ENDROOT
BRANCH   6   7
ATOM      7  C7  <0> d   1      -0.709  18.516  -1.803  0.00  0.00     0.031 C 
ATOM      8  C8  <0> d   1      -0.428  17.204  -1.857  0.00  0.00     0.015 C 
BRANCH   8   9
ATOM      9  C9  <0> d   1      -0.713  16.339  -0.698  0.00  0.00    -0.021 A 
ATOM     10  C14 <0> d   1      -1.934  16.445  -0.029  0.00  0.00    -0.009 A 
ATOM     11  C13 <0> d   1      -2.199  15.627   1.056  0.00  0.00     0.126 A 
ATOM     12  C12 <0> d   1      -1.249  14.712   1.487  0.00  0.00    -0.037 A 
ATOM     13  C11 <0> d   1      -0.031  14.608   0.830  0.00  0.00     0.127 A 
ATOM     14  C10 <0> d   1       0.241  15.418  -0.260  0.00  0.00    -0.015 A 
BRANCH  11  15
ATOM     15  O1  <0> d   1      -3.390  15.724   1.704  0.00  0.00    -0.496 OA
ATOM     16  H10 <0> d   1      -4.149  15.838   1.116  0.00  0.00     0.394 HD
ENDBRANCH  11  15
BRANCH  13  17
ATOM     17  O2  <0> d   1       0.895  13.710   1.257  0.00  0.00    -0.496 OA
ATOM     18  H11 <0> d   1       1.576  14.090   1.829  0.00  0.00     0.394 HD
ENDBRANCH  13  17
ENDBRANCH   8   9
ENDBRANCH   6   7
BRANCH   3  19
ATOM     19  O3  <0> d   1       0.376  21.796  -6.214  0.00  0.00    -0.500 OA
ATOM     20  H12 <0> d   1       1.224  22.258  -6.163  0.00  0.00     0.393 HD
ENDBRANCH   3  19
TORSDOF 5
ENDMDL
