MODEL 1
REMARK VINA RESULT:      -6.1      0.000      0.000
REMARK  7 active torsions:
REMARK  status: ('A' for Active; 'I' for Inactive)
REMARK    1  A    between atoms: C2_2  and  C13_19 
REMARK    2  A    between atoms: C5_5  and  O1_8 
REMARK    3  A    between atoms: O1_8  and  C7_9 
REMARK    4  A    between atoms: C10_12  and  O2_16 
REMARK    5  A    between atoms: C13_19  and  C14_20 
REMARK    6  A    between atoms: C14_20  and  C15_21 
REMARK    7  A    between atoms: C14_20  and  N1_27 
ROOT
ATOM      1  C1  <0> d   1      -1.313  19.288  -3.213  0.00  0.00     0.114 A 
ATOM      2  C2  <0> d   1      -1.001  20.633  -3.298  0.00  0.00    -0.095 A 
ATOM      3  C3  <0> d   1      -0.450  21.286  -2.211  0.00  0.00     0.062 A 
ATOM      4  C4  <0> d   1      -0.209  20.598  -1.038  0.00  0.00    -0.109 A 
ATOM      5  C5  <0> d   1      -0.522  19.248  -0.950  0.00  0.00     0.144 A 
ATOM      6  C6  <0> d   1      -1.070  18.594  -2.044  0.00  0.00    -0.106 A 
ATOM      7  I1  <0> d   1      -1.534  16.554  -1.919  0.00  0.00     0.015 I 
ATOM      8  I4  <0> d   1       0.627  21.589   0.607  0.00  0.00     0.011 I 
ENDROOT
BRANCH   2   9
ATOM      9  C13 <0> d   1      -1.262  21.385  -4.577  0.00  0.00     0.146 C 
BRANCH   9  10
ATOM     10  C14 <0> d   1      -0.585  20.661  -5.742  0.00  0.00     0.129 C 
BRANCH  10  11
ATOM     11  C15 <0> d   1      -0.937  21.353  -7.035  0.00  0.00     0.459 C 
ATOM     12  O3  <0> d   1      -0.123  22.054  -7.585  0.00  0.00    -0.611 OA
ATOM     13  O4  <0> d   1      -2.155  21.187  -7.574  0.00  0.00    -0.695 OA
ENDBRANCH  10  11
BRANCH  10  14
ATOM     14  N1  <0> d   1       0.873  20.673  -5.533  0.00  0.00    -0.629 N 
ATOM     15  H9  <0> d   1       1.187  21.618  -5.318  0.00  0.00     0.438 HD
ATOM     16  H10 <0> d   1       1.120  20.051  -4.765  0.00  0.00     0.435 HD
ATOM     17  H11 <0> d   1       1.340  20.351  -6.389  0.00  0.00     0.416 HD
ENDBRANCH  10  14
ENDBRANCH   9  10
ENDBRANCH   2   9
BRANCH   5  18
ATOM     18  O1  <0> d   1      -0.286  18.569   0.202  0.00  0.00    -0.237 OA
BRANCH  18  19
ATOM     19  C7  <0> d   1      -1.266  18.551   1.145  0.00  0.00     0.120 A 
ATOM     20  C12 <0> d   1      -2.575  18.840   0.789  0.00  0.00     0.010 A 
ATOM     21  C11 <0> d   1      -3.571  18.822   1.747  0.00  0.00    -0.090 A 
ATOM     22  C10 <0> d   1      -3.262  18.515   3.064  0.00  0.00     0.149 A 
ATOM     23  I2  <0> d   1      -5.549  19.258   1.210  0.00  0.00     0.002 I 
ATOM     24  C9  <0> d   1      -1.952  18.226   3.420  0.00  0.00    -0.094 A 
ATOM     25  C8  <0> d   1      -0.956  18.243   2.462  0.00  0.00     0.084 A 
ATOM     26  I3  <0> d   1      -1.485  17.762   5.408  0.00  0.00     0.007 I 
BRANCH  22  27
ATOM     27  O2  <0> d   1      -4.242  18.497   4.007  0.00  0.00    -0.471 OA
ATOM     28  H6  <0> d   1      -4.922  19.174   3.881  0.00  0.00     0.397 HD
ENDBRANCH  22  27
ENDBRANCH  18  19
ENDBRANCH   5  18
TORSDOF 7
ENDMDL
MODEL 2
REMARK VINA RESULT:      -6.1      4.193      5.508
REMARK  7 active torsions:
REMARK  status: ('A' for Active; 'I' for Inactive)
REMARK    1  A    between atoms: C2_2  and  C13_19 
REMARK    2  A    between atoms: C5_5  and  O1_8 
REMARK    3  A    between atoms: O1_8  and  C7_9 
REMARK    4  A    between atoms: C10_12  and  O2_16 
REMARK    5  A    between atoms: C13_19  and  C14_20 
REMARK    6  A    between atoms: C14_20  and  C15_21 
REMARK    7  A    between atoms: C14_20  and  N1_27 
ROOT
ATOM      1  C1  <0> d   1       0.416  23.012   0.132  0.00  0.00     0.114 A 
ATOM      2  C2  <0> d   1      -0.203  23.763  -0.850  0.00  0.00    -0.095 A 
ATOM      3  C3  <0> d   1      -0.570  23.174  -2.046  0.00  0.00     0.062 A 
ATOM      4  C4  <0> d   1      -0.319  21.833  -2.263  0.00  0.00    -0.109 A 
ATOM      5  C5  <0> d   1       0.303  21.077  -1.279  0.00  0.00     0.144 A 
ATOM      6  C6  <0> d   1       0.665  21.669  -0.077  0.00  0.00    -0.106 A 
ATOM      7  I1  <0> d   1       1.595  20.529   1.415  0.00  0.00     0.015 I 
ATOM      8  I4  <0> d   1      -0.877  20.942  -4.075  0.00  0.00     0.011 I 
ENDROOT
BRANCH   2   9
ATOM      9  C13 <0> d   1      -0.478  25.226  -0.615  0.00  0.00     0.146 C 
BRANCH   9  10
ATOM     10  C14 <0> d   1       0.243  25.684   0.654  0.00  0.00     0.129 C 
BRANCH  10  11
ATOM     11  C15 <0> d   1       1.282  26.715   0.297  0.00  0.00     0.459 C 
ATOM     12  O3  <0> d   1       2.102  26.477  -0.558  0.00  0.00    -0.611 OA
ATOM     13  O4  <0> d   1       1.295  27.901   0.927  0.00  0.00    -0.695 OA
ENDBRANCH  10  11
BRANCH  10  14
ATOM     14  N1  <0> d   1      -0.745  26.251   1.589  0.00  0.00    -0.629 N 
ATOM     15  H9  <0> d   1      -1.248  27.016   1.143  0.00  0.00     0.438 HD
ATOM     16  H10 <0> d   1      -1.406  25.532   1.876  0.00  0.00     0.435 HD
ATOM     17  H11 <0> d   1      -0.257  26.609   2.419  0.00  0.00     0.416 HD
ENDBRANCH  10  14
ENDBRANCH   9  10
ENDBRANCH   2   9
BRANCH   5  18
ATOM     18  O1  <0> d   1       0.550  19.757  -1.489  0.00  0.00    -0.237 OA
BRANCH  18  19
ATOM     19  C7  <0> d   1      -0.281  18.851  -0.909  0.00  0.00     0.120 A 
ATOM     20  C12 <0> d   1      -1.485  19.268  -0.361  0.00  0.00     0.010 A 
ATOM     21  C11 <0> d   1      -2.331  18.347   0.229  0.00  0.00    -0.090 A 
ATOM     22  C10 <0> d   1      -1.975  17.007   0.272  0.00  0.00     0.149 A 
ATOM     23  I2  <0> d   1      -4.150  18.975   1.057  0.00  0.00     0.002 I 
ATOM     24  C9  <0> d   1      -0.770  16.591  -0.276  0.00  0.00    -0.094 A 
ATOM     25  C8  <0> d   1       0.075  17.511  -0.867  0.00  0.00     0.084 A 
ATOM     26  I3  <0> d   1      -0.233  14.567  -0.212  0.00  0.00     0.007 I 
BRANCH  22  27
ATOM     27  O2  <0> d   1      -2.807  16.100   0.852  0.00  0.00    -0.471 OA
ATOM     28  H6  <0> d   1      -2.442  15.205   0.898  0.00  0.00     0.397 HD
ENDBRANCH  22  27
ENDBRANCH  18  19
ENDBRANCH   5  18
TORSDOF 7
ENDMDL
MODEL 3
REMARK VINA RESULT:      -6.1      0.329      2.845
REMARK  7 active torsions:
REMARK  status: ('A' for Active; 'I' for Inactive)
REMARK    1  A    between atoms: C2_2  and  C13_19 
REMARK    2  A    between atoms: C5_5  and  O1_8 
REMARK    3  A    between atoms: O1_8  and  C7_9 
REMARK    4  A    between atoms: C10_12  and  O2_16 
REMARK    5  A    between atoms: C13_19  and  C14_20 
REMARK    6  A    between atoms: C14_20  and  C15_21 
REMARK    7  A    between atoms: C14_20  and  N1_27 
ROOT
ATOM      1  C1  <0> d   1      -0.338  21.083  -2.131  0.00  0.00     0.114 A 
ATOM      2  C2  <0> d   1      -0.866  20.400  -3.211  0.00  0.00    -0.095 A 
ATOM      3  C3  <0> d   1      -1.181  19.058  -3.096  0.00  0.00     0.062 A 
ATOM      4  C4  <0> d   1      -0.970  18.397  -1.901  0.00  0.00    -0.109 A 
ATOM      5  C5  <0> d   1      -0.439  19.080  -0.816  0.00  0.00     0.144 A 
ATOM      6  C6  <0> d   1      -0.128  20.428  -0.933  0.00  0.00    -0.106 A 
ATOM      7  I1  <0> d   1       0.665  21.465   0.706  0.00  0.00     0.015 I 
ATOM      8  I4  <0> d   1      -1.450  16.365  -1.729  0.00  0.00     0.011 I 
ENDROOT
BRANCH   2   9
ATOM      9  C13 <0> d   1      -1.099  21.119  -4.514  0.00  0.00     0.146 C 
BRANCH   9  10
ATOM     10  C14 <0> d   1      -0.459  20.327  -5.656  0.00  0.00     0.129 C 
BRANCH  10  11
ATOM     11  C15 <0> d   1      -0.848  20.944  -6.974  0.00  0.00     0.459 C 
ATOM     12  O3  <0> d   1      -0.033  21.040  -7.861  0.00  0.00    -0.611 OA
ATOM     13  O4  <0> d   1      -2.101  21.386  -7.165  0.00  0.00    -0.695 OA
ENDBRANCH  10  11
BRANCH  10  14
ATOM     14  N1  <0> d   1       1.006  20.347  -5.490  0.00  0.00    -0.629 N 
ATOM     15  H9  <0> d   1       1.385  19.412  -5.630  0.00  0.00     0.438 HD
ATOM     16  H10 <0> d   1       1.424  20.987  -6.163  0.00  0.00     0.435 HD
ATOM     17  H11 <0> d   1       1.233  20.663  -4.540  0.00  0.00     0.416 HD
ENDBRANCH  10  14
ENDBRANCH   9  10
ENDBRANCH   2   9
BRANCH   5  18
ATOM     18  O1  <0> d   1      -0.229  18.432   0.360  0.00  0.00    -0.237 OA
BRANCH  18  19
ATOM     19  C7  <0> d   1      -1.232  18.436   1.279  0.00  0.00     0.120 A 
ATOM     20  C12 <0> d   1      -0.961  18.111   2.600  0.00  0.00     0.010 A 
ATOM     21  C11 <0> d   1      -1.980  18.114   3.534  0.00  0.00    -0.090 A 
ATOM     22  C10 <0> d   1      -3.272  18.443   3.150  0.00  0.00     0.149 A 
ATOM     23  I2  <0> d   1      -1.573  17.625   5.530  0.00  0.00     0.002 I 
ATOM     24  C9  <0> d   1      -3.542  18.768   1.828  0.00  0.00    -0.094 A 
ATOM     25  C8  <0> d   1      -2.523  18.765   0.894  0.00  0.00     0.084 A 
ATOM     26  I3  <0> d   1      -5.493  19.265   1.248  0.00  0.00     0.007 I 
BRANCH  22  27
ATOM     27  O2  <0> d   1      -4.275  18.447   4.069  0.00  0.00    -0.471 OA
ATOM     28  H6  <0> d   1      -4.538  19.332   4.360  0.00  0.00     0.397 HD
ENDBRANCH  22  27
ENDBRANCH  18  19
ENDBRANCH   5  18
TORSDOF 7
ENDMDL
MODEL 4
REMARK VINA RESULT:      -6.1      3.742      5.467
REMARK  7 active torsions:
REMARK  status: ('A' for Active; 'I' for Inactive)
REMARK    1  A    between atoms: C2_2  and  C13_19 
REMARK    2  A    between atoms: C5_5  and  O1_8 
REMARK    3  A    between atoms: O1_8  and  C7_9 
REMARK    4  A    between atoms: C10_12  and  O2_16 
REMARK    5  A    between atoms: C13_19  and  C14_20 
REMARK    6  A    between atoms: C14_20  and  C15_21 
REMARK    7  A    between atoms: C14_20  and  N1_27 
ROOT
ATOM      1  C1  <0> d   1       1.131  22.248  -3.046  0.00  0.00     0.114 A 
ATOM      2  C2  <0> d   1       0.812  20.906  -3.143  0.00  0.00    -0.095 A 
ATOM      3  C3  <0> d   1       0.295  20.236  -2.050  0.00  0.00     0.062 A 
ATOM      4  C4  <0> d   1       0.094  20.905  -0.858  0.00  0.00    -0.109 A 
ATOM      5  C5  <0> d   1       0.414  22.252  -0.758  0.00  0.00     0.144 A 
ATOM      6  C6  <0> d   1       0.928  22.924  -1.859  0.00  0.00    -0.106 A 
ATOM      7  I1  <0> d   1       1.403  24.960  -1.715  0.00  0.00     0.015 I 
ATOM      8  I4  <0> d   1      -0.692  19.889   0.796  0.00  0.00     0.011 I 
ENDROOT
BRANCH   2   9
ATOM      9  C13 <0> d   1       1.029  20.174  -4.442  0.00  0.00     0.146 C 
BRANCH   9  10
ATOM     10  C14 <0> d   1       0.440  20.992  -5.593  0.00  0.00     0.129 C 
BRANCH  10  11
ATOM     11  C15 <0> d   1       0.963  20.462  -6.904  0.00  0.00     0.459 C 
ATOM     12  O3  <0> d   1       0.326  20.621  -7.917  0.00  0.00    -0.611 OA
ATOM     13  O4  <0> d   1       2.139  19.816  -6.945  0.00  0.00    -0.695 OA
ENDBRANCH  10  11
BRANCH  10  14
ATOM     14  N1  <0> d   1      -1.029  20.894  -5.549  0.00  0.00    -0.629 N 
ATOM     15  H9  <0> d   1      -1.315  19.917  -5.562  0.00  0.00     0.438 HD
ATOM     16  H10 <0> d   1      -1.383  21.340  -4.704  0.00  0.00     0.435 HD
ATOM     17  H11 <0> d   1      -1.424  21.370  -6.369  0.00  0.00     0.416 HD
ENDBRANCH  10  14
ENDBRANCH   9  10
ENDBRANCH   2   9
BRANCH   5  18
ATOM     18  O1  <0> d   1       0.218  22.913   0.412  0.00  0.00    -0.237 OA
BRANCH  18  19
ATOM     19  C7  <0> d   1       1.219  22.893   1.333  0.00  0.00     0.120 A 
ATOM     20  C12 <0> d   1       0.942  23.171   2.663  0.00  0.00     0.010 A 
ATOM     21  C11 <0> d   1       1.959  23.151   3.599  0.00  0.00    -0.090 A 
ATOM     22  C10 <0> d   1       3.256  22.852   3.207  0.00  0.00     0.149 A 
ATOM     23  I2  <0> d   1       1.542  23.570   5.609  0.00  0.00     0.002 I 
ATOM     24  C9  <0> d   1       3.532  22.574   1.876  0.00  0.00    -0.094 A 
ATOM     25  C8  <0> d   1       2.515  22.594   0.941  0.00  0.00     0.084 A 
ATOM     26  I3  <0> d   1       5.491  22.123   1.285  0.00  0.00     0.007 I 
BRANCH  22  27
ATOM     27  O2  <0> d   1       4.257  22.832   4.128  0.00  0.00    -0.471 OA
ATOM     28  H6  <0> d   1       4.467  21.948   4.461  0.00  0.00     0.397 HD
ENDBRANCH  22  27
ENDBRANCH  18  19
ENDBRANCH   5  18
TORSDOF 7
ENDMDL
MODEL 5
REMARK VINA RESULT:      -6.1      3.733      5.454
REMARK  7 active torsions:
REMARK  status: ('A' for Active; 'I' for Inactive)
REMARK    1  A    between atoms: C2_2  and  C13_19 
REMARK    2  A    between atoms: C5_5  and  O1_8 
REMARK    3  A    between atoms: O1_8  and  C7_9 
REMARK    4  A    between atoms: C10_12  and  O2_16 
REMARK    5  A    between atoms: C13_19  and  C14_20 
REMARK    6  A    between atoms: C14_20  and  C15_21 
REMARK    7  A    between atoms: C14_20  and  N1_27 
ROOT
ATOM      1  C1  <0> d   1       1.216  22.304  -3.065  0.00  0.00     0.114 A 
ATOM      2  C2  <0> d   1       0.918  20.963  -3.218  0.00  0.00    -0.095 A 
ATOM      3  C3  <0> d   1       0.387  20.246  -2.162  0.00  0.00     0.062 A 
ATOM      4  C4  <0> d   1       0.153  20.868  -0.951  0.00  0.00    -0.109 A 
ATOM      5  C5  <0> d   1       0.452  22.215  -0.794  0.00  0.00     0.144 A 
ATOM      6  C6  <0> d   1       0.980  22.933  -1.858  0.00  0.00    -0.106 A 
ATOM      7  I1  <0> d   1       1.424  24.968  -1.630  0.00  0.00     0.015 I 
ATOM      8  I4  <0> d   1      -0.653  19.781   0.649  0.00  0.00     0.011 I 
ENDROOT
BRANCH   2   9
ATOM      9  C13 <0> d   1       1.171  20.282  -4.538  0.00  0.00     0.146 C 
BRANCH   9  10
ATOM     10  C14 <0> d   1       0.468  21.057  -5.655  0.00  0.00     0.129 C 
BRANCH  10  11
ATOM     11  C15 <0> d   1       0.928  20.537  -6.993  0.00  0.00     0.459 C 
ATOM     12  O3  <0> d   1       1.900  19.823  -7.061  0.00  0.00    -0.611 OA
ATOM     13  O4  <0> d   1       0.256  20.865  -8.107  0.00  0.00    -0.695 OA
ENDBRANCH  10  11
BRANCH  10  14
ATOM     14  N1  <0> d   1      -0.989  20.890  -5.511  0.00  0.00    -0.629 N 
ATOM     15  H9  <0> d   1      -1.328  20.195  -6.175  0.00  0.00     0.438 HD
ATOM     16  H10 <0> d   1      -1.213  20.591  -4.564  0.00  0.00     0.435 HD
ATOM     17  H11 <0> d   1      -1.451  21.787  -5.699  0.00  0.00     0.416 HD
ENDBRANCH  10  14
ENDBRANCH   9  10
ENDBRANCH   2   9
BRANCH   5  18
ATOM     18  O1  <0> d   1       0.223  22.829   0.395  0.00  0.00    -0.237 OA
BRANCH  18  19
ATOM     19  C7  <0> d   1       1.229  22.845   1.311  0.00  0.00     0.120 A 
ATOM     20  C12 <0> d   1       2.523  22.531   0.922  0.00  0.00     0.010 A 
ATOM     21  C11 <0> d   1       3.545  22.545   1.852  0.00  0.00    -0.090 A 
ATOM     22  C10 <0> d   1       3.277  22.875   3.173  0.00  0.00     0.149 A 
ATOM     23  I2  <0> d   1       5.500  22.072   1.267  0.00  0.00     0.002 I 
ATOM     24  C9  <0> d   1       1.982  23.188   3.561  0.00  0.00    -0.094 A 
ATOM     25  C8  <0> d   1       0.960  23.174   2.631  0.00  0.00     0.084 A 
ATOM     26  I3  <0> d   1       1.577  23.686   5.555  0.00  0.00     0.007 I 
BRANCH  22  27
ATOM     27  O2  <0> d   1       4.283  22.890   4.088  0.00  0.00    -0.471 OA
ATOM     28  H6  <0> d   1       4.507  23.774   4.412  0.00  0.00     0.397 HD
ENDBRANCH  22  27
ENDBRANCH  18  19
ENDBRANCH   5  18
TORSDOF 7
ENDMDL
MODEL 6
REMARK VINA RESULT:      -6.1      4.042      7.149
REMARK  7 active torsions:
REMARK  status: ('A' for Active; 'I' for Inactive)
REMARK    1  A    between atoms: C2_2  and  C13_19 
REMARK    2  A    between atoms: C5_5  and  O1_8 
REMARK    3  A    between atoms: O1_8  and  C7_9 
REMARK    4  A    between atoms: C10_12  and  O2_16 
REMARK    5  A    between atoms: C13_19  and  C14_20 
REMARK    6  A    between atoms: C14_20  and  C15_21 
REMARK    7  A    between atoms: C14_20  and  N1_27 
ROOT
ATOM      1  C1  <0> d   1       0.426  18.241  -2.136  0.00  0.00     0.114 A 
ATOM      2  C2  <0> d   1       0.042  17.690  -0.927  0.00  0.00    -0.095 A 
ATOM      3  C3  <0> d   1      -0.523  18.490   0.050  0.00  0.00     0.062 A 
ATOM      4  C4  <0> d   1      -0.705  19.840  -0.180  0.00  0.00    -0.109 A 
ATOM      5  C5  <0> d   1      -0.319  20.394  -1.392  0.00  0.00     0.144 A 
ATOM      6  C6  <0> d   1       0.243  19.589  -2.373  0.00  0.00    -0.106 A 
ATOM      7  I1  <0> d   1       0.818  20.420  -4.208  0.00  0.00     0.015 I 
ATOM      8  I4  <0> d   1      -1.563  21.049   1.301  0.00  0.00     0.011 I 
ENDROOT
BRANCH   2   9
ATOM      9  C13 <0> d   1       0.238  16.218  -0.675  0.00  0.00     0.146 C 
BRANCH   9  10
ATOM     10  C14 <0> d   1      -0.256  15.871   0.731  0.00  0.00     0.129 C 
BRANCH  10  11
ATOM     11  C15 <0> d   1      -1.361  14.851   0.637  0.00  0.00     0.459 C 
ATOM     12  O3  <0> d   1      -1.609  14.140   1.581  0.00  0.00    -0.611 OA
ATOM     13  O4  <0> d   1      -2.071  14.734  -0.496  0.00  0.00    -0.695 OA
ENDBRANCH  10  11
BRANCH  10  14
ATOM     14  N1  <0> d   1       0.871  15.338   1.517  0.00  0.00    -0.629 N 
ATOM     15  H9  <0> d   1       1.535  14.871   0.902  0.00  0.00     0.438 HD
ATOM     16  H10 <0> d   1       1.341  16.094   2.011  0.00  0.00     0.435 HD
ATOM     17  H11 <0> d   1       0.514  14.660   2.201  0.00  0.00     0.416 HD
ENDBRANCH  10  14
ENDBRANCH   9  10
ENDBRANCH   2   9
BRANCH   5  18
ATOM     18  O1  <0> d   1      -0.497  21.722  -1.621  0.00  0.00    -0.237 OA
BRANCH  18  19
ATOM     19  C7  <0> d   1       0.333  22.596  -0.990  0.00  0.00     0.120 A 
ATOM     20  C12 <0> d   1       1.516  22.142  -0.426  0.00  0.00     0.010 A 
ATOM     21  C11 <0> d   1       2.359  23.029   0.216  0.00  0.00    -0.090 A 
ATOM     22  C10 <0> d   1       2.023  24.372   0.294  0.00  0.00     0.149 A 
ATOM     23  I2  <0> d   1       4.147  22.345   1.068  0.00  0.00     0.002 I 
ATOM     24  C9  <0> d   1       0.839  24.826  -0.271  0.00  0.00    -0.094 A 
ATOM     25  C8  <0> d   1      -0.004  23.939  -0.912  0.00  0.00     0.084 A 
ATOM     26  I3  <0> d   1       0.331  26.855  -0.152  0.00  0.00     0.007 I 
BRANCH  22  27
ATOM     27  O2  <0> d   1       2.853  25.246   0.925  0.00  0.00    -0.471 OA
ATOM     28  H6  <0> d   1       3.059  25.004   1.839  0.00  0.00     0.397 HD
ENDBRANCH  22  27
ENDBRANCH  18  19
ENDBRANCH   5  18
TORSDOF 7
ENDMDL
MODEL 7
REMARK VINA RESULT:      -6.1      0.445      2.094
REMARK  7 active torsions:
REMARK  status: ('A' for Active; 'I' for Inactive)
REMARK    1  A    between atoms: C2_2  and  C13_19 
REMARK    2  A    between atoms: C5_5  and  O1_8 
REMARK    3  A    between atoms: O1_8  and  C7_9 
REMARK    4  A    between atoms: C10_12  and  O2_16 
REMARK    5  A    between atoms: C13_19  and  C14_20 
REMARK    6  A    between atoms: C14_20  and  C15_21 
REMARK    7  A    between atoms: C14_20  and  N1_27 
ROOT
ATOM      1  C1  <0> d   1      -1.217  19.027  -3.054  0.00  0.00     0.114 A 
ATOM      2  C2  <0> d   1      -0.923  20.370  -3.201  0.00  0.00    -0.095 A 
ATOM      3  C3  <0> d   1      -0.395  21.085  -2.142  0.00  0.00     0.062 A 
ATOM      4  C4  <0> d   1      -0.158  20.458  -0.934  0.00  0.00    -0.109 A 
ATOM      5  C5  <0> d   1      -0.452  19.110  -0.783  0.00  0.00     0.144 A 
ATOM      6  C6  <0> d   1      -0.977  18.394  -1.850  0.00  0.00    -0.106 A 
ATOM      7  I1  <0> d   1      -1.413  16.356  -1.630  0.00  0.00     0.015 I 
ATOM      8  I4  <0> d   1       0.645  21.541   0.670  0.00  0.00     0.011 I 
ENDROOT
BRANCH   2   9
ATOM      9  C13 <0> d   1      -1.180  21.056  -4.518  0.00  0.00     0.146 C 
BRANCH   9  10
ATOM     10  C14 <0> d   1      -0.479  20.286  -5.639  0.00  0.00     0.129 C 
BRANCH  10  11
ATOM     11  C15 <0> d   1      -0.930  20.822  -6.974  0.00  0.00     0.459 C 
ATOM     12  O3  <0> d   1      -1.882  21.562  -7.037  0.00  0.00    -0.611 OA
ATOM     13  O4  <0> d   1      -0.271  20.479  -8.092  0.00  0.00    -0.695 OA
ENDBRANCH  10  11
BRANCH  10  14
ATOM     14  N1  <0> d   1       0.979  20.441  -5.488  0.00  0.00    -0.629 N 
ATOM     15  H9  <0> d   1       1.335  19.759  -4.821  0.00  0.00     0.438 HD
ATOM     16  H10 <0> d   1       1.438  20.309  -6.387  0.00  0.00     0.435 HD
ATOM     17  H11 <0> d   1       1.183  21.387  -5.143  0.00  0.00     0.416 HD
ENDBRANCH  10  14
ENDBRANCH   9  10
ENDBRANCH   2   9
BRANCH   5  18
ATOM     18  O1  <0> d   1      -0.220  18.491   0.404  0.00  0.00    -0.237 OA
BRANCH  18  19
ATOM     19  C7  <0> d   1      -1.221  18.477   1.324  0.00  0.00     0.120 A 
ATOM     20  C12 <0> d   1      -0.944  18.158   2.645  0.00  0.00     0.010 A 
ATOM     21  C11 <0> d   1      -1.961  18.143   3.580  0.00  0.00    -0.090 A 
ATOM     22  C10 <0> d   1      -3.260  18.447   3.197  0.00  0.00     0.149 A 
ATOM     23  I2  <0> d   1      -1.544  17.662   5.576  0.00  0.00     0.002 I 
ATOM     24  C9  <0> d   1      -3.537  18.766   1.875  0.00  0.00    -0.094 A 
ATOM     25  C8  <0> d   1      -2.519  18.781   0.940  0.00  0.00     0.084 A 
ATOM     26  I3  <0> d   1      -5.497  19.225   1.297  0.00  0.00     0.007 I 
BRANCH  22  27
ATOM     27  O2  <0> d   1      -4.261  18.433   4.117  0.00  0.00    -0.471 OA
ATOM     28  H6  <0> d   1      -4.839  19.208   4.081  0.00  0.00     0.397 HD
ENDBRANCH  22  27
ENDBRANCH  18  19
ENDBRANCH   5  18
TORSDOF 7
ENDMDL
MODEL 8
REMARK VINA RESULT:      -6.0      4.068      5.671
REMARK  7 active torsions:
REMARK  status: ('A' for Active; 'I' for Inactive)
REMARK    1  A    between atoms: C2_2  and  C13_19 
REMARK    2  A    between atoms: C5_5  and  O1_8 
REMARK    3  A    between atoms: O1_8  and  C7_9 
REMARK    4  A    between atoms: C10_12  and  O2_16 
REMARK    5  A    between atoms: C13_19  and  C14_20 
REMARK    6  A    between atoms: C14_20  and  C15_21 
REMARK    7  A    between atoms: C14_20  and  N1_27 
ROOT
ATOM      1  C1  <0> d   1       0.136  20.058  -1.335  0.00  0.00     0.114 A 
ATOM      2  C2  <0> d   1       0.596  20.475  -2.570  0.00  0.00    -0.095 A 
ATOM      3  C3  <0> d   1       1.004  21.784  -2.752  0.00  0.00     0.062 A 
ATOM      4  C4  <0> d   1       0.953  22.678  -1.700  0.00  0.00    -0.109 A 
ATOM      5  C5  <0> d   1       0.491  22.262  -0.459  0.00  0.00     0.144 A 
ATOM      6  C6  <0> d   1       0.087  20.946  -0.278  0.00  0.00    -0.106 A 
ATOM      7  I1  <0> d   1      -0.602  20.311   1.596  0.00  0.00     0.015 I 
ATOM      8  I4  <0> d   1       1.573  24.660  -1.977  0.00  0.00     0.011 I 
ENDROOT
BRANCH   2   9
ATOM      9  C13 <0> d   1       0.653  19.502  -3.719  0.00  0.00     0.146 C 
BRANCH   9  10
ATOM     10  C14 <0> d   1       0.843  20.270  -5.029  0.00  0.00     0.129 C 
BRANCH  10  11
ATOM     11  C15 <0> d   1       1.942  19.624  -5.834  0.00  0.00     0.459 C 
ATOM     12  O3  <0> d   1       1.853  19.564  -7.037  0.00  0.00    -0.611 OA
ATOM     13  O4  <0> d   1       3.019  19.118  -5.213  0.00  0.00    -0.695 OA
ENDBRANCH  10  11
BRANCH  10  14
ATOM     14  N1  <0> d   1      -0.424  20.254  -5.781  0.00  0.00    -0.629 N 
ATOM     15  H9  <0> d   1      -1.125  20.812  -5.297  0.00  0.00     0.438 HD
ATOM     16  H10 <0> d   1      -0.278  20.629  -6.717  0.00  0.00     0.435 HD
ATOM     17  H11 <0> d   1      -0.759  19.286  -5.857  0.00  0.00     0.416 HD
ENDBRANCH  10  14
ENDBRANCH   9  10
ENDBRANCH   2   9
BRANCH   5  18
ATOM     18  O1  <0> d   1       0.440  23.139   0.577  0.00  0.00    -0.237 OA
BRANCH  18  19
ATOM     19  C7  <0> d   1       1.502  23.188   1.426  0.00  0.00     0.120 A 
ATOM     20  C12 <0> d   1       1.350  23.728   2.694  0.00  0.00     0.010 A 
ATOM     21  C11 <0> d   1       2.429  23.779   3.556  0.00  0.00    -0.090 A 
ATOM     22  C10 <0> d   1       3.662  23.288   3.153  0.00  0.00     0.149 A 
ATOM     23  I2  <0> d   1       2.202  24.594   5.473  0.00  0.00     0.002 I 
ATOM     24  C9  <0> d   1       3.813  22.748   1.884  0.00  0.00    -0.094 A 
ATOM     25  C8  <0> d   1       2.734  22.697   1.022  0.00  0.00     0.084 A 
ATOM     26  I3  <0> d   1       5.676  22.007   1.275  0.00  0.00     0.007 I 
BRANCH  22  27
ATOM     27  O2  <0> d   1       4.724  23.337   4.002  0.00  0.00    -0.471 OA
ATOM     28  H6  <0> d   1       4.596  22.840   4.822  0.00  0.00     0.397 HD
ENDBRANCH  22  27
ENDBRANCH  18  19
ENDBRANCH   5  18
TORSDOF 7
ENDMDL
MODEL 9
REMARK VINA RESULT:      -5.9      2.506      2.909
REMARK  7 active torsions:
REMARK  status: ('A' for Active; 'I' for Inactive)
REMARK    1  A    between atoms: C2_2  and  C13_19 
REMARK    2  A    between atoms: C5_5  and  O1_8 
REMARK    3  A    between atoms: O1_8  and  C7_9 
REMARK    4  A    between atoms: C10_12  and  O2_16 
REMARK    5  A    between atoms: C13_19  and  C14_20 
REMARK    6  A    between atoms: C14_20  and  C15_21 
REMARK    7  A    between atoms: C14_20  and  N1_27 
ROOT
ATOM      1  C1  <0> d   1      -1.606  20.075  -3.870  0.00  0.00     0.114 A 
ATOM      2  C2  <0> d   1      -1.251  21.258  -4.491  0.00  0.00    -0.095 A 
ATOM      3  C3  <0> d   1      -0.207  22.017  -3.993  0.00  0.00     0.062 A 
ATOM      4  C4  <0> d   1       0.483  21.594  -2.873  0.00  0.00    -0.109 A 
ATOM      5  C5  <0> d   1       0.128  20.408  -2.247  0.00  0.00     0.144 A 
ATOM      6  C6  <0> d   1      -0.917  19.646  -2.752  0.00  0.00    -0.106 A 
ATOM      7  I1  <0> d   1      -1.450  17.848  -1.816  0.00  0.00     0.015 I 
ATOM      8  I4  <0> d   1       2.065  22.744  -2.121  0.00  0.00     0.011 I 
ENDROOT
BRANCH   2   9
ATOM      9  C13 <0> d   1      -2.001  21.720  -5.713  0.00  0.00     0.146 C 
BRANCH   9  10
ATOM     10  C14 <0> d   1      -1.091  21.620  -6.939  0.00  0.00     0.129 C 
BRANCH  10  11
ATOM     11  C15 <0> d   1      -1.487  20.421  -7.761  0.00  0.00     0.459 C 
ATOM     12  O3  <0> d   1      -2.394  20.505  -8.554  0.00  0.00    -0.611 OA
ATOM     13  O4  <0> d   1      -0.830  19.260  -7.613  0.00  0.00    -0.695 OA
ENDBRANCH  10  11
BRANCH  10  14
ATOM     14  N1  <0> d   1      -1.220  22.854  -7.734  0.00  0.00    -0.629 N 
ATOM     15  H9  <0> d   1      -2.068  23.353  -7.469  0.00  0.00     0.438 HD
ATOM     16  H10 <0> d   1      -0.412  23.455  -7.580  0.00  0.00     0.435 HD
ATOM     17  H11 <0> d   1      -1.272  22.610  -8.730  0.00  0.00     0.416 HD
ENDBRANCH  10  14
ENDBRANCH   9  10
ENDBRANCH   2   9
BRANCH   5  18
ATOM     18  O1  <0> d   1       0.805  19.990  -1.146  0.00  0.00    -0.237 OA
BRANCH  18  19
ATOM     19  C7  <0> d   1       0.343  20.378   0.073  0.00  0.00     0.120 A 
ATOM     20  C12 <0> d   1      -0.057  21.690   0.276  0.00  0.00     0.010 A 
ATOM     21  C11 <0> d   1      -0.526  22.086   1.515  0.00  0.00    -0.090 A 
ATOM     22  C10 <0> d   1      -0.596  21.170   2.554  0.00  0.00     0.149 A 
ATOM     23  I2  <0> d   1      -1.131  24.068   1.822  0.00  0.00     0.002 I 
ATOM     24  C9  <0> d   1      -0.195  19.857   2.351  0.00  0.00    -0.094 A 
ATOM     25  C8  <0> d   1       0.273  19.462   1.112  0.00  0.00     0.084 A 
ATOM     26  I3  <0> d   1      -0.301  18.474   3.921  0.00  0.00     0.007 I 
BRANCH  22  27
ATOM     27  O2  <0> d   1      -1.057  21.558   3.773  0.00  0.00    -0.471 OA
ATOM     28  H6  <0> d   1      -1.440  22.447   3.784  0.00  0.00     0.397 HD
ENDBRANCH  22  27
ENDBRANCH  18  19
ENDBRANCH   5  18
TORSDOF 7
ENDMDL
MODEL 10
REMARK VINA RESULT:      -5.9      2.519      3.294
REMARK  7 active torsions:
REMARK  status: ('A' for Active; 'I' for Inactive)
REMARK    1  A    between atoms: C2_2  and  C13_19 
REMARK    2  A    between atoms: C5_5  and  O1_8 
REMARK    3  A    between atoms: O1_8  and  C7_9 
REMARK    4  A    between atoms: C10_12  and  O2_16 
REMARK    5  A    between atoms: C13_19  and  C14_20 
REMARK    6  A    between atoms: C14_20  and  C15_21 
REMARK    7  A    between atoms: C14_20  and  N1_27 
ROOT
ATOM      1  C1  <0> d   1      -1.530  20.098  -3.867  0.00  0.00     0.114 A 
ATOM      2  C2  <0> d   1      -1.143  21.262  -4.505  0.00  0.00    -0.095 A 
ATOM      3  C3  <0> d   1      -0.084  22.003  -4.013  0.00  0.00     0.062 A 
ATOM      4  C4  <0> d   1       0.591  21.581  -2.883  0.00  0.00    -0.109 A 
ATOM      5  C5  <0> d   1       0.204  20.413  -2.241  0.00  0.00     0.144 A 
ATOM      6  C6  <0> d   1      -0.856  19.669  -2.740  0.00  0.00    -0.106 A 
ATOM      7  I1  <0> d   1      -1.438  17.900  -1.779  0.00  0.00     0.015 I 
ATOM      8  I4  <0> d   1       2.196  22.703  -2.141  0.00  0.00     0.011 I 
ENDROOT
BRANCH   2   9
ATOM      9  C13 <0> d   1      -1.876  21.723  -5.738  0.00  0.00     0.146 C 
BRANCH   9  10
ATOM     10  C14 <0> d   1      -0.966  21.571  -6.959  0.00  0.00     0.129 C 
BRANCH  10  11
ATOM     11  C15 <0> d   1      -1.387  20.360  -7.750  0.00  0.00     0.459 C 
ATOM     12  O3  <0> d   1      -2.347  20.419  -8.481  0.00  0.00    -0.611 OA
ATOM     13  O4  <0> d   1      -0.694  19.215  -7.644  0.00  0.00    -0.695 OA
ENDBRANCH  10  11
BRANCH  10  14
ATOM     14  N1  <0> d   1      -1.068  22.787  -7.786  0.00  0.00    -0.629 N 
ATOM     15  H9  <0> d   1      -1.904  23.310  -7.536  0.00  0.00     0.438 HD
ATOM     16  H10 <0> d   1      -0.247  23.373  -7.647  0.00  0.00     0.435 HD
ATOM     17  H11 <0> d   1      -1.123  22.517  -8.776  0.00  0.00     0.416 HD
ENDBRANCH  10  14
ENDBRANCH   9  10
ENDBRANCH   2   9
BRANCH   5  18
ATOM     18  O1  <0> d   1       0.865  19.996  -1.130  0.00  0.00    -0.237 OA
BRANCH  18  19
ATOM     19  C7  <0> d   1       0.388  20.389   0.082  0.00  0.00     0.120 A 
ATOM     20  C12 <0> d   1       0.337  19.484   1.132  0.00  0.00     0.010 A 
ATOM     21  C11 <0> d   1      -0.148  19.882   2.363  0.00  0.00    -0.090 A 
ATOM     22  C10 <0> d   1      -0.582  21.186   2.549  0.00  0.00     0.149 A 
ATOM     23  I2  <0> d   1      -0.225  18.516   3.950  0.00  0.00     0.002 I 
ATOM     24  C9  <0> d   1      -0.530  22.091   1.498  0.00  0.00    -0.094 A 
ATOM     25  C8  <0> d   1      -0.045  21.693   0.267  0.00  0.00     0.084 A 
ATOM     26  I3  <0> d   1      -1.186  24.061   1.779  0.00  0.00     0.007 I 
BRANCH  22  27
ATOM     27  O2  <0> d   1      -1.058  21.579   3.761  0.00  0.00    -0.471 OA
ATOM     28  H6  <0> d   1      -0.929  20.927   4.464  0.00  0.00     0.397 HD
ENDBRANCH  22  27
ENDBRANCH  18  19
ENDBRANCH   5  18
TORSDOF 7
ENDMDL
MODEL 11
REMARK VINA RESULT:      -5.5     23.496     28.592
REMARK  7 active torsions:
REMARK  status: ('A' for Active; 'I' for Inactive)
REMARK    1  A    between atoms: C2_2  and  C13_19 
REMARK    2  A    between atoms: C5_5  and  O1_8 
REMARK    3  A    between atoms: O1_8  and  C7_9 
REMARK    4  A    between atoms: C10_12  and  O2_16 
REMARK    5  A    between atoms: C13_19  and  C14_20 
REMARK    6  A    between atoms: C14_20  and  C15_21 
REMARK    7  A    between atoms: C14_20  and  N1_27 
ROOT
ATOM      1  C1  <0> d   1       1.059  20.013 -26.732  0.00  0.00     0.114 A 
ATOM      2  C2  <0> d   1       0.147  20.852 -26.118  0.00  0.00    -0.095 A 
ATOM      3  C3  <0> d   1      -0.993  21.251 -26.793  0.00  0.00     0.062 A 
ATOM      4  C4  <0> d   1      -1.223  20.811 -28.083  0.00  0.00    -0.109 A 
ATOM      5  C5  <0> d   1      -0.309  19.970 -28.701  0.00  0.00     0.144 A 
ATOM      6  C6  <0> d   1       0.831  19.567 -28.020  0.00  0.00    -0.106 A 
ATOM      7  I1  <0> d   1       2.209  18.289 -28.946  0.00  0.00     0.015 I 
ATOM      8  I4  <0> d   1      -2.950  21.414 -29.103  0.00  0.00     0.011 I 
ENDROOT
BRANCH   2   9
ATOM      9  C13 <0> d   1       0.395  21.332 -24.712  0.00  0.00     0.146 C 
BRANCH   9  10
ATOM     10  C14 <0> d   1      -0.915  21.294 -23.921  0.00  0.00     0.129 C 
BRANCH  10  11
ATOM     11  C15 <0> d   1      -1.006  19.994 -23.164  0.00  0.00     0.459 C 
ATOM     12  O3  <0> d   1       0.001  19.421 -22.824  0.00  0.00    -0.611 OA
ATOM     13  O4  <0> d   1      -2.208  19.474 -22.867  0.00  0.00    -0.695 OA
ENDBRANCH  10  11
BRANCH  10  14
ATOM     14  N1  <0> d   1      -0.945  22.436 -22.989  0.00  0.00    -0.629 N 
ATOM     15  H9  <0> d   1      -0.110  23.007 -23.110  0.00  0.00     0.438 HD
ATOM     16  H10 <0> d   1      -1.772  23.004 -23.161  0.00  0.00     0.435 HD
ATOM     17  H11 <0> d   1      -0.974  22.083 -22.025  0.00  0.00     0.416 HD
ENDBRANCH  10  14
ENDBRANCH   9  10
ENDBRANCH   2   9
BRANCH   5  18
ATOM     18  O1  <0> d   1      -0.533  19.536 -29.969  0.00  0.00    -0.237 OA
BRANCH  18  19
ATOM     19  C7  <0> d   1      -0.055  20.289 -30.996  0.00  0.00     0.120 A 
ATOM     20  C12 <0> d   1       0.144  21.651 -30.821  0.00  0.00     0.010 A 
ATOM     21  C11 <0> d   1       0.629  22.417 -31.864  0.00  0.00    -0.090 A 
ATOM     22  C10 <0> d   1       0.918  21.824 -33.085  0.00  0.00     0.149 A 
ATOM     23  I2  <0> d   1       0.930  24.474 -31.602  0.00  0.00     0.002 I 
ATOM     24  C9  <0> d   1       0.719  20.462 -33.259  0.00  0.00    -0.094 A 
ATOM     25  C8  <0> d   1       0.234  19.696 -32.216  0.00  0.00     0.084 A 
ATOM     26  I3  <0> d   1       1.155  19.566 -35.102  0.00  0.00     0.007 I 
BRANCH  22  27
ATOM     27  O2  <0> d   1       1.396  22.577 -34.111  0.00  0.00    -0.471 OA
ATOM     28  H6  <0> d   1       1.993  23.287 -33.834  0.00  0.00     0.397 HD
ENDBRANCH  22  27
ENDBRANCH  18  19
ENDBRANCH   5  18
TORSDOF 7
ENDMDL
MODEL 12
REMARK VINA RESULT:      -5.5     23.471     28.552
REMARK  7 active torsions:
REMARK  status: ('A' for Active; 'I' for Inactive)
REMARK    1  A    between atoms: C2_2  and  C13_19 
REMARK    2  A    between atoms: C5_5  and  O1_8 
REMARK    3  A    between atoms: O1_8  and  C7_9 
REMARK    4  A    between atoms: C10_12  and  O2_16 
REMARK    5  A    between atoms: C13_19  and  C14_20 
REMARK    6  A    between atoms: C14_20  and  C15_21 
REMARK    7  A    between atoms: C14_20  and  N1_27 
ROOT
ATOM      1  C1  <0> d   1      -0.993  21.235 -26.750  0.00  0.00     0.114 A 
ATOM      2  C2  <0> d   1       0.149  20.839 -26.080  0.00  0.00    -0.095 A 
ATOM      3  C3  <0> d   1       1.063  20.006 -26.698  0.00  0.00     0.062 A 
ATOM      4  C4  <0> d   1       0.837  19.568 -27.989  0.00  0.00    -0.109 A 
ATOM      5  C5  <0> d   1      -0.309  19.963 -28.664  0.00  0.00     0.144 A 
ATOM      6  C6  <0> d   1      -1.222  20.803 -28.042  0.00  0.00    -0.106 A 
ATOM      7  I1  <0> d   1      -2.949  21.411 -29.062  0.00  0.00     0.015 I 
ATOM      8  I4  <0> d   1       2.224  18.307 -28.926  0.00  0.00     0.011 I 
ENDROOT
BRANCH   2   9
ATOM      9  C13 <0> d   1       0.398  21.317 -24.673  0.00  0.00     0.146 C 
BRANCH   9  10
ATOM     10  C14 <0> d   1      -0.920  21.323 -23.895  0.00  0.00     0.129 C 
BRANCH  10  11
ATOM     11  C15 <0> d   1      -1.062  20.026 -23.139  0.00  0.00     0.459 C 
ATOM     12  O3  <0> d   1      -0.081  19.381 -22.856  0.00  0.00    -0.611 OA
ATOM     13  O4  <0> d   1      -2.280  19.591 -22.778  0.00  0.00    -0.695 OA
ENDBRANCH  10  11
BRANCH  10  14
ATOM     14  N1  <0> d   1      -0.921  22.464 -22.963  0.00  0.00    -0.629 N 
ATOM     15  H9  <0> d   1      -0.229  22.318 -22.231  0.00  0.00     0.438 HD
ATOM     16  H10 <0> d   1      -0.707  23.324 -23.465  0.00  0.00     0.435 HD
ATOM     17  H11 <0> d   1      -1.851  22.549 -22.535  0.00  0.00     0.416 HD
ENDBRANCH  10  14
ENDBRANCH   9  10
ENDBRANCH   2   9
BRANCH   5  18
ATOM     18  O1  <0> d   1      -0.534  19.533 -29.934  0.00  0.00    -0.237 OA
BRANCH  18  19
ATOM     19  C7  <0> d   1      -0.048  20.285 -30.958  0.00  0.00     0.120 A 
ATOM     20  C12 <0> d   1       0.233  19.691 -32.179  0.00  0.00     0.010 A 
ATOM     21  C11 <0> d   1       0.728  20.454 -33.220  0.00  0.00    -0.090 A 
ATOM     22  C10 <0> d   1       0.942  21.813 -33.043  0.00  0.00     0.149 A 
ATOM     23  I2  <0> d   1       1.152  19.559 -35.066  0.00  0.00     0.002 I 
ATOM     24  C9  <0> d   1       0.661  22.407 -31.821  0.00  0.00    -0.094 A 
ATOM     25  C8  <0> d   1       0.166  21.644 -30.780  0.00  0.00     0.084 A 
ATOM     26  I3  <0> d   1       0.985  24.459 -31.553  0.00  0.00     0.007 I 
BRANCH  22  27
ATOM     27  O2  <0> d   1       1.428  22.565 -34.067  0.00  0.00    -0.471 OA
ATOM     28  H6  <0> d   1       1.189  23.501 -34.016  0.00  0.00     0.397 HD
ENDBRANCH  22  27
ENDBRANCH  18  19
ENDBRANCH   5  18
TORSDOF 7
ENDMDL
MODEL 13
REMARK VINA RESULT:      -5.5     23.641     28.502
REMARK  7 active torsions:
REMARK  status: ('A' for Active; 'I' for Inactive)
REMARK    1  A    between atoms: C2_2  and  C13_19 
REMARK    2  A    between atoms: C5_5  and  O1_8 
REMARK    3  A    between atoms: O1_8  and  C7_9 
REMARK    4  A    between atoms: C10_12  and  O2_16 
REMARK    5  A    between atoms: C13_19  and  C14_20 
REMARK    6  A    between atoms: C14_20  and  C15_21 
REMARK    7  A    between atoms: C14_20  and  N1_27 
ROOT
ATOM      1  C1  <0> d   1       0.994  20.080 -26.754  0.00  0.00     0.114 A 
ATOM      2  C2  <0> d   1      -0.149  20.476 -26.085  0.00  0.00    -0.095 A 
ATOM      3  C3  <0> d   1      -1.062  21.310 -26.704  0.00  0.00     0.062 A 
ATOM      4  C4  <0> d   1      -0.834  21.750 -27.993  0.00  0.00    -0.109 A 
ATOM      5  C5  <0> d   1       0.314  21.355 -28.667  0.00  0.00     0.144 A 
ATOM      6  C6  <0> d   1       1.225  20.514 -28.045  0.00  0.00    -0.106 A 
ATOM      7  I1  <0> d   1       2.954  19.907 -29.062  0.00  0.00     0.015 I 
ATOM      8  I4  <0> d   1      -2.218  23.012 -28.931  0.00  0.00     0.011 I 
ENDROOT
BRANCH   2   9
ATOM      9  C13 <0> d   1      -0.401  19.996 -24.679  0.00  0.00     0.146 C 
BRANCH   9  10
ATOM     10  C14 <0> d   1       0.912  20.009 -23.893  0.00  0.00     0.129 C 
BRANCH  10  11
ATOM     11  C15 <0> d   1       1.030  21.306 -23.134  0.00  0.00     0.459 C 
ATOM     12  O3  <0> d   1       0.035  21.917 -22.823  0.00  0.00    -0.611 OA
ATOM     13  O4  <0> d   1       2.241  21.782 -22.803  0.00  0.00    -0.695 OA
ENDBRANCH  10  11
BRANCH  10  14
ATOM     14  N1  <0> d   1       0.924  18.866 -22.962  0.00  0.00    -0.629 N 
ATOM     15  H9  <0> d   1       0.702  18.007 -23.461  0.00  0.00     0.438 HD
ATOM     16  H10 <0> d   1       1.842  18.779 -22.529  0.00  0.00     0.435 HD
ATOM     17  H11 <0> d   1       0.221  19.020 -22.230  0.00  0.00     0.416 HD
ENDBRANCH  10  14
ENDBRANCH   9  10
ENDBRANCH   2   9
BRANCH   5  18
ATOM     18  O1  <0> d   1       0.541  21.786 -29.936  0.00  0.00    -0.237 OA
BRANCH  18  19
ATOM     19  C7  <0> d   1       0.058  21.036 -30.962  0.00  0.00     0.120 A 
ATOM     20  C12 <0> d   1      -0.152  19.676 -30.785  0.00  0.00     0.010 A 
ATOM     21  C11 <0> d   1      -0.642  18.912 -31.828  0.00  0.00    -0.090 A 
ATOM     22  C10 <0> d   1      -0.925  19.506 -33.050  0.00  0.00     0.149 A 
ATOM     23  I2  <0> d   1      -0.960  16.859 -31.564  0.00  0.00     0.002 I 
ATOM     24  C9  <0> d   1      -0.715  20.867 -33.225  0.00  0.00    -0.094 A 
ATOM     25  C8  <0> d   1      -0.225  21.630 -32.182  0.00  0.00     0.084 A 
ATOM     26  I3  <0> d   1      -1.141  21.764 -35.070  0.00  0.00     0.007 I 
BRANCH  22  27
ATOM     27  O2  <0> d   1      -1.408  18.756 -34.076  0.00  0.00    -0.471 OA
ATOM     28  H6  <0> d   1      -0.896  17.953 -34.251  0.00  0.00     0.397 HD
ENDBRANCH  22  27
ENDBRANCH  18  19
ENDBRANCH   5  18
TORSDOF 7
ENDMDL
MODEL 14
REMARK VINA RESULT:      -5.5     23.414     28.551
REMARK  7 active torsions:
REMARK  status: ('A' for Active; 'I' for Inactive)
REMARK    1  A    between atoms: C2_2  and  C13_19 
REMARK    2  A    between atoms: C5_5  and  O1_8 
REMARK    3  A    between atoms: O1_8  and  C7_9 
REMARK    4  A    between atoms: C10_12  and  O2_16 
REMARK    5  A    between atoms: C13_19  and  C14_20 
REMARK    6  A    between atoms: C14_20  and  C15_21 
REMARK    7  A    between atoms: C14_20  and  N1_27 
ROOT
ATOM      1  C1  <0> d   1       1.071  20.012 -26.699  0.00  0.00     0.114 A 
ATOM      2  C2  <0> d   1       0.158  20.848 -26.083  0.00  0.00    -0.095 A 
ATOM      3  C3  <0> d   1      -0.982  21.245 -26.756  0.00  0.00     0.062 A 
ATOM      4  C4  <0> d   1      -1.213  20.807 -28.046  0.00  0.00    -0.109 A 
ATOM      5  C5  <0> d   1      -0.298  19.968 -28.667  0.00  0.00     0.144 A 
ATOM      6  C6  <0> d   1       0.843  19.567 -27.987  0.00  0.00    -0.106 A 
ATOM      7  I1  <0> d   1       2.223  18.292 -28.916  0.00  0.00     0.015 I 
ATOM      8  I4  <0> d   1      -2.942  21.408 -29.064  0.00  0.00     0.011 I 
ENDROOT
BRANCH   2   9
ATOM      9  C13 <0> d   1       0.407  21.327 -24.676  0.00  0.00     0.146 C 
BRANCH   9  10
ATOM     10  C14 <0> d   1      -0.907  21.315 -23.893  0.00  0.00     0.129 C 
BRANCH  10  11
ATOM     11  C15 <0> d   1      -1.011  20.034 -23.106  0.00  0.00     0.459 C 
ATOM     12  O3  <0> d   1      -2.050  19.419 -23.087  0.00  0.00    -0.611 OA
ATOM     13  O4  <0> d   1       0.053  19.575 -22.428  0.00  0.00    -0.695 OA
ENDBRANCH  10  11
BRANCH  10  14
ATOM     14  N1  <0> d   1      -0.937  22.478 -22.989  0.00  0.00    -0.629 N 
ATOM     15  H9  <0> d   1      -0.024  22.929 -22.970  0.00  0.00     0.438 HD
ATOM     16  H10 <0> d   1      -1.638  23.146 -23.303  0.00  0.00     0.435 HD
ATOM     17  H11 <0> d   1      -1.175  22.162 -22.041  0.00  0.00     0.416 HD
ENDBRANCH  10  14
ENDBRANCH   9  10
ENDBRANCH   2   9
BRANCH   5  18
ATOM     18  O1  <0> d   1      -0.522  19.535 -29.935  0.00  0.00    -0.237 OA
BRANCH  18  19
ATOM     19  C7  <0> d   1      -0.045  20.290 -30.961  0.00  0.00     0.120 A 
ATOM     20  C12 <0> d   1       0.238  19.697 -32.183  0.00  0.00     0.010 A 
ATOM     21  C11 <0> d   1       0.724  20.463 -33.225  0.00  0.00    -0.090 A 
ATOM     22  C10 <0> d   1       0.926  21.825 -33.050  0.00  0.00     0.149 A 
ATOM     23  I2  <0> d   1       1.152  19.570 -35.071  0.00  0.00     0.002 I 
ATOM     24  C9  <0> d   1       0.642  22.417 -31.828  0.00  0.00    -0.094 A 
ATOM     25  C8  <0> d   1       0.156  21.651 -30.785  0.00  0.00     0.084 A 
ATOM     26  I3  <0> d   1       0.947  24.473 -31.563  0.00  0.00     0.007 I 
BRANCH  22  27
ATOM     27  O2  <0> d   1       1.403  22.579 -34.076  0.00  0.00    -0.471 OA
ATOM     28  H6  <0> d   1       1.144  23.511 -34.033  0.00  0.00     0.397 HD
ENDBRANCH  22  27
ENDBRANCH  18  19
ENDBRANCH   5  18
TORSDOF 7
ENDMDL
MODEL 15
REMARK VINA RESULT:      -5.5     23.586     28.476
REMARK  7 active torsions:
REMARK  status: ('A' for Active; 'I' for Inactive)
REMARK    1  A    between atoms: C2_2  and  C13_19 
REMARK    2  A    between atoms: C5_5  and  O1_8 
REMARK    3  A    between atoms: O1_8  and  C7_9 
REMARK    4  A    between atoms: C10_12  and  O2_16 
REMARK    5  A    between atoms: C13_19  and  C14_20 
REMARK    6  A    between atoms: C14_20  and  C15_21 
REMARK    7  A    between atoms: C14_20  and  N1_27 
ROOT
ATOM      1  C1  <0> d   1      -1.092  21.333 -26.711  0.00  0.00     0.114 A 
ATOM      2  C2  <0> d   1      -0.179  20.495 -26.096  0.00  0.00    -0.095 A 
ATOM      3  C3  <0> d   1       0.959  20.095 -26.772  0.00  0.00     0.062 A 
ATOM      4  C4  <0> d   1       1.188  20.531 -28.062  0.00  0.00    -0.109 A 
ATOM      5  C5  <0> d   1       0.274  21.371 -28.682  0.00  0.00     0.144 A 
ATOM      6  C6  <0> d   1      -0.866  21.776 -28.000  0.00  0.00    -0.106 A 
ATOM      7  I1  <0> d   1      -2.244  23.052 -28.928  0.00  0.00     0.015 I 
ATOM      8  I4  <0> d   1       2.914  19.926 -29.083  0.00  0.00     0.011 I 
ENDROOT
BRANCH   2   9
ATOM      9  C13 <0> d   1      -0.426  20.018 -24.689  0.00  0.00     0.146 C 
BRANCH   9  10
ATOM     10  C14 <0> d   1       0.893  20.009 -23.914  0.00  0.00     0.129 C 
BRANCH  10  11
ATOM     11  C15 <0> d   1       1.006  21.272 -23.100  0.00  0.00     0.459 C 
ATOM     12  O3  <0> d   1       0.021  21.755 -22.594  0.00  0.00    -0.611 OA
ATOM     13  O4  <0> d   1       2.202  21.860 -22.935  0.00  0.00    -0.695 OA
ENDBRANCH  10  11
BRANCH  10  14
ATOM     14  N1  <0> d   1       0.925  18.826 -23.036  0.00  0.00    -0.629 N 
ATOM     15  H9  <0> d   1       0.214  18.157 -23.326  0.00  0.00     0.438 HD
ATOM     16  H10 <0> d   1       1.842  18.385 -23.078  0.00  0.00     0.435 HD
ATOM     17  H11 <0> d   1       0.737  19.118 -22.070  0.00  0.00     0.416 HD
ENDBRANCH  10  14
ENDBRANCH   9  10
ENDBRANCH   2   9
BRANCH   5  18
ATOM     18  O1  <0> d   1       0.496  21.802 -29.951  0.00  0.00    -0.237 OA
BRANCH  18  19
ATOM     19  C7  <0> d   1       0.023  21.043 -30.976  0.00  0.00     0.120 A 
ATOM     20  C12 <0> d   1      -0.279  21.634 -32.193  0.00  0.00     0.010 A 
ATOM     21  C11 <0> d   1      -0.761  20.863 -33.234  0.00  0.00    -0.090 A 
ATOM     22  C10 <0> d   1      -0.939  19.498 -33.062  0.00  0.00     0.149 A 
ATOM     23  I2  <0> d   1      -1.218  21.755 -35.074  0.00  0.00     0.002 I 
ATOM     24  C9  <0> d   1      -0.636  18.907 -31.843  0.00  0.00    -0.094 A 
ATOM     25  C8  <0> d   1      -0.155  19.678 -30.802  0.00  0.00     0.084 A 
ATOM     26  I3  <0> d   1      -0.906  16.846 -31.582  0.00  0.00     0.007 I 
BRANCH  22  27
ATOM     27  O2  <0> d   1      -1.412  18.739 -34.086  0.00  0.00    -0.471 OA
ATOM     28  H6  <0> d   1      -1.717  19.252 -34.848  0.00  0.00     0.397 HD
ENDBRANCH  22  27
ENDBRANCH  18  19
ENDBRANCH   5  18
TORSDOF 7
ENDMDL
MODEL 16
REMARK VINA RESULT:      -5.5     22.995     28.210
REMARK  7 active torsions:
REMARK  status: ('A' for Active; 'I' for Inactive)
REMARK    1  A    between atoms: C2_2  and  C13_19 
REMARK    2  A    between atoms: C5_5  and  O1_8 
REMARK    3  A    between atoms: O1_8  and  C7_9 
REMARK    4  A    between atoms: C10_12  and  O2_16 
REMARK    5  A    between atoms: C13_19  and  C14_20 
REMARK    6  A    between atoms: C14_20  and  C15_21 
REMARK    7  A    between atoms: C14_20  and  N1_27 
ROOT
ATOM      1  C1  <0> d   1       0.849  19.958 -26.477  0.00  0.00     0.114 A 
ATOM      2  C2  <0> d   1      -0.288  20.478 -25.886  0.00  0.00    -0.095 A 
ATOM      3  C3  <0> d   1      -1.095  21.354 -26.588  0.00  0.00     0.062 A 
ATOM      4  C4  <0> d   1      -0.769  21.711 -27.882  0.00  0.00    -0.109 A 
ATOM      5  C5  <0> d   1       0.372  21.191 -28.477  0.00  0.00     0.144 A 
ATOM      6  C6  <0> d   1       1.178  20.308 -27.772  0.00  0.00    -0.106 A 
ATOM      7  I1  <0> d   1       2.895  19.512 -28.670  0.00  0.00     0.015 I 
ATOM      8  I4  <0> d   1      -1.994  23.037 -28.945  0.00  0.00     0.011 I 
ENDROOT
BRANCH   2   9
ATOM      9  C13 <0> d   1      -0.647  20.089 -24.475  0.00  0.00     0.146 C 
BRANCH   9  10
ATOM     10  C14 <0> d   1       0.460  20.547 -23.522  0.00  0.00     0.129 C 
BRANCH  10  11
ATOM     11  C15 <0> d   1      -0.087  21.594 -22.585  0.00  0.00     0.459 C 
ATOM     12  O3  <0> d   1      -0.580  22.603 -23.028  0.00  0.00    -0.611 OA
ATOM     13  O4  <0> d   1      -0.027  21.402 -21.258  0.00  0.00    -0.695 OA
ENDBRANCH  10  11
BRANCH  10  14
ATOM     14  N1  <0> d   1       0.951  19.383 -22.764  0.00  0.00    -0.629 N 
ATOM     15  H9  <0> d   1       1.963  19.435 -22.662  0.00  0.00     0.438 HD
ATOM     16  H10 <0> d   1       0.518  19.359 -21.843  0.00  0.00     0.435 HD
ATOM     17  H11 <0> d   1       0.709  18.524 -23.271  0.00  0.00     0.416 HD
ENDBRANCH  10  14
ENDBRANCH   9  10
ENDBRANCH   2   9
BRANCH   5  18
ATOM     18  O1  <0> d   1       0.696  21.540 -29.749  0.00  0.00    -0.237 OA
BRANCH  18  19
ATOM     19  C7  <0> d   1       0.180  20.799 -30.766  0.00  0.00     0.120 A 
ATOM     20  C12 <0> d   1      -0.063  21.389 -31.998  0.00  0.00     0.010 A 
ATOM     21  C11 <0> d   1      -0.589  20.636 -33.032  0.00  0.00    -0.090 A 
ATOM     22  C10 <0> d   1      -0.871  19.292 -32.837  0.00  0.00     0.149 A 
ATOM     23  I2  <0> d   1      -0.956  21.524 -34.893  0.00  0.00     0.002 I 
ATOM     24  C9  <0> d   1      -0.628  18.703 -31.604  0.00  0.00    -0.094 A 
ATOM     25  C8  <0> d   1      -0.103  19.455 -30.571  0.00  0.00     0.084 A 
ATOM     26  I3  <0> d   1      -1.055  16.673 -31.310  0.00  0.00     0.007 I 
BRANCH  22  27
ATOM     27  O2  <0> d   1      -1.387  18.551 -33.854  0.00  0.00    -0.471 OA
ATOM     28  H6  <0> d   1      -1.974  19.046 -34.444  0.00  0.00     0.397 HD
ENDBRANCH  22  27
ENDBRANCH  18  19
ENDBRANCH   5  18
TORSDOF 7
ENDMDL
MODEL 17
REMARK VINA RESULT:      -5.5     22.883     28.349
REMARK  7 active torsions:
REMARK  status: ('A' for Active; 'I' for Inactive)
REMARK    1  A    between atoms: C2_2  and  C13_19 
REMARK    2  A    between atoms: C5_5  and  O1_8 
REMARK    3  A    between atoms: O1_8  and  C7_9 
REMARK    4  A    between atoms: C10_12  and  O2_16 
REMARK    5  A    between atoms: C13_19  and  C14_20 
REMARK    6  A    between atoms: C14_20  and  C15_21 
REMARK    7  A    between atoms: C14_20  and  N1_27 
ROOT
ATOM      1  C1  <0> d   1      -0.798  21.398 -26.455  0.00  0.00     0.114 A 
ATOM      2  C2  <0> d   1       0.334  20.860 -25.872  0.00  0.00    -0.095 A 
ATOM      3  C3  <0> d   1       1.122  19.969 -26.578  0.00  0.00     0.062 A 
ATOM      4  C4  <0> d   1       0.779  19.616 -27.869  0.00  0.00    -0.109 A 
ATOM      5  C5  <0> d   1      -0.357  20.154 -28.457  0.00  0.00     0.144 A 
ATOM      6  C6  <0> d   1      -1.142  21.052 -27.747  0.00  0.00    -0.106 A 
ATOM      7  I1  <0> d   1      -2.853  21.875 -28.634  0.00  0.00     0.015 I 
ATOM      8  I4  <0> d   1       1.974  18.268 -28.939  0.00  0.00     0.011 I 
ENDROOT
BRANCH   2   9
ATOM      9  C13 <0> d   1       0.710  21.245 -24.464  0.00  0.00     0.146 C 
BRANCH   9  10
ATOM     10  C14 <0> d   1      -0.411  20.835 -23.507  0.00  0.00     0.129 C 
BRANCH  10  11
ATOM     11  C15 <0> d   1       0.106  19.798 -22.543  0.00  0.00     0.459 C 
ATOM     12  O3  <0> d   1       0.609  18.783 -22.961  0.00  0.00    -0.611 OA
ATOM     13  O4  <0> d   1       0.011  20.005 -21.220  0.00  0.00    -0.695 OA
ENDBRANCH  10  11
BRANCH  10  14
ATOM     14  N1  <0> d   1      -0.878  22.028 -22.778  0.00  0.00    -0.629 N 
ATOM     15  H9  <0> d   1      -1.879  21.959 -22.600  0.00  0.00     0.438 HD
ATOM     16  H10 <0> d   1      -0.382  22.112 -21.892  0.00  0.00     0.435 HD
ATOM     17  H11 <0> d   1      -0.695  22.863 -23.346  0.00  0.00     0.416 HD
ENDBRANCH  10  14
ENDBRANCH   9  10
ENDBRANCH   2   9
BRANCH   5  18
ATOM     18  O1  <0> d   1      -0.696  19.808 -29.726  0.00  0.00    -0.237 OA
BRANCH  18  19
ATOM     19  C7  <0> d   1      -0.177  20.541 -30.748  0.00  0.00     0.120 A 
ATOM     20  C12 <0> d   1       0.103  21.887 -30.562  0.00  0.00     0.010 A 
ATOM     21  C11 <0> d   1       0.629  22.632 -31.600  0.00  0.00    -0.090 A 
ATOM     22  C10 <0> d   1       0.877  22.034 -32.827  0.00  0.00     0.149 A 
ATOM     23  I2  <0> d   1       1.054  24.664 -31.321  0.00  0.00     0.002 I 
ATOM     24  C9  <0> d   1       0.596  20.688 -33.013  0.00  0.00    -0.094 A 
ATOM     25  C8  <0> d   1       0.070  19.943 -31.974  0.00  0.00     0.084 A 
ATOM     26  I3  <0> d   1       0.970  19.785 -34.866  0.00  0.00     0.007 I 
BRANCH  22  27
ATOM     27  O2  <0> d   1       1.395  22.767 -33.849  0.00  0.00    -0.471 OA
ATOM     28  H6  <0> d   1       2.171  22.367 -34.266  0.00  0.00     0.397 HD
ENDBRANCH  22  27
ENDBRANCH  18  19
ENDBRANCH   5  18
TORSDOF 7
ENDMDL
MODEL 18
REMARK VINA RESULT:      -5.5     22.986     28.274
REMARK  7 active torsions:
REMARK  status: ('A' for Active; 'I' for Inactive)
REMARK    1  A    between atoms: C2_2  and  C13_19 
REMARK    2  A    between atoms: C5_5  and  O1_8 
REMARK    3  A    between atoms: O1_8  and  C7_9 
REMARK    4  A    between atoms: C10_12  and  O2_16 
REMARK    5  A    between atoms: C13_19  and  C14_20 
REMARK    6  A    between atoms: C14_20  and  C15_21 
REMARK    7  A    between atoms: C14_20  and  N1_27 
ROOT
ATOM      1  C1  <0> d   1      -1.102  21.409 -26.593  0.00  0.00     0.114 A 
ATOM      2  C2  <0> d   1      -0.315  20.513 -25.892  0.00  0.00    -0.095 A 
ATOM      3  C3  <0> d   1       0.809  19.966 -26.485  0.00  0.00     0.062 A 
ATOM      4  C4  <0> d   1       1.148  20.314 -27.779  0.00  0.00    -0.109 A 
ATOM      5  C5  <0> d   1       0.359  21.212 -28.484  0.00  0.00     0.144 A 
ATOM      6  C6  <0> d   1      -0.765  21.763 -27.885  0.00  0.00    -0.106 A 
ATOM      7  I1  <0> d   1      -1.953  23.127 -28.942  0.00  0.00     0.015 I 
ATOM      8  I4  <0> d   1       2.851  19.486 -28.675  0.00  0.00     0.011 I 
ENDROOT
BRANCH   2   9
ATOM      9  C13 <0> d   1      -0.682  20.134 -24.481  0.00  0.00     0.146 C 
BRANCH   9  10
ATOM     10  C14 <0> d   1       0.467  20.500 -23.539  0.00  0.00     0.129 C 
BRANCH  10  11
ATOM     11  C15 <0> d   1      -0.010  21.525 -22.542  0.00  0.00     0.459 C 
ATOM     12  O3  <0> d   1       0.103  21.315 -21.358  0.00  0.00    -0.611 OA
ATOM     13  O4  <0> d   1      -0.559  22.673 -22.970  0.00  0.00    -0.695 OA
ENDBRANCH  10  11
BRANCH  10  14
ATOM     14  N1  <0> d   1       0.926  19.283 -22.846  0.00  0.00    -0.629 N 
ATOM     15  H9  <0> d   1       1.944  19.255 -22.827  0.00  0.00     0.438 HD
ATOM     16  H10 <0> d   1       0.568  19.268 -21.893  0.00  0.00     0.435 HD
ATOM     17  H11 <0> d   1       0.577  18.458 -23.349  0.00  0.00     0.416 HD
ENDBRANCH  10  14
ENDBRANCH   9  10
ENDBRANCH   2   9
BRANCH   5  18
ATOM     18  O1  <0> d   1       0.690  21.556 -29.756  0.00  0.00    -0.237 OA
BRANCH  18  19
ATOM     19  C7  <0> d   1       0.152  20.831 -30.774  0.00  0.00     0.120 A 
ATOM     20  C12 <0> d   1      -0.119  19.483 -30.595  0.00  0.00     0.010 A 
ATOM     21  C11 <0> d   1      -0.665  18.746 -31.630  0.00  0.00    -0.090 A 
ATOM     22  C10 <0> d   1      -0.941  19.355 -32.845  0.00  0.00     0.149 A 
ATOM     23  I2  <0> d   1      -1.076  16.709 -31.362  0.00  0.00     0.002 I 
ATOM     24  C9  <0> d   1      -0.670  20.704 -33.023  0.00  0.00    -0.094 A 
ATOM     25  C8  <0> d   1      -0.124  21.441 -31.988  0.00  0.00     0.084 A 
ATOM     26  I3  <0> d   1      -1.087  21.624 -34.858  0.00  0.00     0.007 I 
BRANCH  22  27
ATOM     27  O2  <0> d   1      -1.479  18.630 -33.863  0.00  0.00    -0.471 OA
ATOM     28  H6  <0> d   1      -2.426  18.459 -33.766  0.00  0.00     0.397 HD
ENDBRANCH  22  27
ENDBRANCH  18  19
ENDBRANCH   5  18
TORSDOF 7
ENDMDL
MODEL 19
REMARK VINA RESULT:      -5.4     23.838     29.122
REMARK  7 active torsions:
REMARK  status: ('A' for Active; 'I' for Inactive)
REMARK    1  A    between atoms: C2_2  and  C13_19 
REMARK    2  A    between atoms: C5_5  and  O1_8 
REMARK    3  A    between atoms: O1_8  and  C7_9 
REMARK    4  A    between atoms: C10_12  and  O2_16 
REMARK    5  A    between atoms: C13_19  and  C14_20 
REMARK    6  A    between atoms: C14_20  and  C15_21 
REMARK    7  A    between atoms: C14_20  and  N1_27 
ROOT
ATOM      1  C1  <0> d   1      -0.789  21.350 -27.153  0.00  0.00     0.114 A 
ATOM      2  C2  <0> d   1      -0.096  20.202 -26.818  0.00  0.00    -0.095 A 
ATOM      3  C3  <0> d   1      -0.103  19.114 -27.671  0.00  0.00     0.062 A 
ATOM      4  C4  <0> d   1      -0.802  19.172 -28.862  0.00  0.00    -0.109 A 
ATOM      5  C5  <0> d   1      -1.499  20.323 -29.200  0.00  0.00     0.144 A 
ATOM      6  C6  <0> d   1      -1.486  21.416 -28.344  0.00  0.00    -0.106 A 
ATOM      7  I1  <0> d   1      -2.529  23.159 -28.856  0.00  0.00     0.015 I 
ATOM      8  I4  <0> d   1      -0.809  17.523 -30.154  0.00  0.00     0.011 I 
ENDROOT
BRANCH   2   9
ATOM      9  C13 <0> d   1       0.668  20.137 -25.521  0.00  0.00     0.146 C 
BRANCH   9  10
ATOM     10  C14 <0> d   1      -0.295  20.350 -24.351  0.00  0.00     0.129 C 
BRANCH  10  11
ATOM     11  C15 <0> d   1      -0.508  19.042 -23.632  0.00  0.00     0.459 C 
ATOM     12  O3  <0> d   1       0.315  18.645 -22.842  0.00  0.00    -0.611 OA
ATOM     13  O4  <0> d   1      -1.614  18.319 -23.869  0.00  0.00    -0.695 OA
ENDBRANCH  10  11
BRANCH  10  14
ATOM     14  N1  <0> d   1       0.278  21.352 -23.435  0.00  0.00    -0.629 N 
ATOM     15  H9  <0> d   1       0.352  20.966 -22.496  0.00  0.00     0.438 HD
ATOM     16  H10 <0> d   1       1.201  21.633 -23.759  0.00  0.00     0.435 HD
ATOM     17  H11 <0> d   1      -0.334  22.176 -23.411  0.00  0.00     0.416 HD
ENDBRANCH  10  14
ENDBRANCH   9  10
ENDBRANCH   2   9
BRANCH   5  18
ATOM     18  O1  <0> d   1      -2.187  20.383 -30.370  0.00  0.00    -0.237 OA
BRANCH  18  19
ATOM     19  C7  <0> d   1      -1.603  21.016 -31.423  0.00  0.00     0.120 A 
ATOM     20  C12 <0> d   1      -0.254  20.827 -31.682  0.00  0.00     0.010 A 
ATOM     21  C11 <0> d   1       0.340  21.470 -32.752  0.00  0.00    -0.090 A 
ATOM     22  C10 <0> d   1      -0.414  22.304 -33.565  0.00  0.00     0.149 A 
ATOM     23  I2  <0> d   1       2.378  21.186 -33.145  0.00  0.00     0.002 I 
ATOM     24  C9  <0> d   1      -1.764  22.492 -33.305  0.00  0.00    -0.094 A 
ATOM     25  C8  <0> d   1      -2.358  21.849 -32.236  0.00  0.00     0.084 A 
ATOM     26  I3  <0> d   1      -2.902  23.751 -34.534  0.00  0.00     0.007 I 
BRANCH  22  27
ATOM     27  O2  <0> d   1       0.170  22.936 -34.618  0.00  0.00    -0.471 OA
ATOM     28  H6  <0> d   1      -0.447  23.176 -35.325  0.00  0.00     0.397 HD
ENDBRANCH  22  27
ENDBRANCH  18  19
ENDBRANCH   5  18
TORSDOF 7
ENDMDL
MODEL 20
REMARK VINA RESULT:      -5.4     23.910     28.927
REMARK  7 active torsions:
REMARK  status: ('A' for Active; 'I' for Inactive)
REMARK    1  A    between atoms: C2_2  and  C13_19 
REMARK    2  A    between atoms: C5_5  and  O1_8 
REMARK    3  A    between atoms: O1_8  and  C7_9 
REMARK    4  A    between atoms: C10_12  and  O2_16 
REMARK    5  A    between atoms: C13_19  and  C14_20 
REMARK    6  A    between atoms: C14_20  and  C15_21 
REMARK    7  A    between atoms: C14_20  and  N1_27 
ROOT
ATOM      1  C1  <0> d   1       0.030  22.145 -27.529  0.00  0.00     0.114 A 
ATOM      2  C2  <0> d   1       0.039  21.042 -26.696  0.00  0.00    -0.095 A 
ATOM      3  C3  <0> d   1       0.770  19.920 -27.039  0.00  0.00     0.062 A 
ATOM      4  C4  <0> d   1       1.494  19.898 -28.215  0.00  0.00    -0.109 A 
ATOM      5  C5  <0> d   1       1.487  21.004 -29.054  0.00  0.00     0.144 A 
ATOM      6  C6  <0> d   1       0.756  22.131 -28.704  0.00  0.00    -0.106 A 
ATOM      7  I1  <0> d   1       0.750  23.807 -29.962  0.00  0.00     0.015 I 
ATOM      8  I4  <0> d   1       2.603  18.197 -28.733  0.00  0.00     0.011 I 
ENDROOT
BRANCH   2   9
ATOM      9  C13 <0> d   1      -0.749  21.064 -25.412  0.00  0.00     0.146 C 
BRANCH   9  10
ATOM     10  C14 <0> d   1       0.187  20.787 -24.234  0.00  0.00     0.129 C 
BRANCH  10  11
ATOM     11  C15 <0> d   1       0.525  22.085 -23.546  0.00  0.00     0.459 C 
ATOM     12  O3  <0> d   1      -0.340  22.718 -22.991  0.00  0.00    -0.611 OA
ATOM     13  O4  <0> d   1       1.790  22.536 -23.550  0.00  0.00    -0.695 OA
ENDBRANCH  10  11
BRANCH  10  14
ATOM     14  N1  <0> d   1      -0.482  19.867 -23.296  0.00  0.00    -0.629 N 
ATOM     15  H9  <0> d   1      -0.958  20.396 -22.568  0.00  0.00     0.438 HD
ATOM     16  H10 <0> d   1      -1.158  19.292 -23.795  0.00  0.00     0.435 HD
ATOM     17  H11 <0> d   1       0.222  19.258 -22.862  0.00  0.00     0.416 HD
ENDBRANCH  10  14
ENDBRANCH   9  10
ENDBRANCH   2   9
BRANCH   5  18
ATOM     18  O1  <0> d   1       2.198  20.985 -30.211  0.00  0.00    -0.237 OA
BRANCH  18  19
ATOM     19  C7  <0> d   1       1.675  20.314 -31.272  0.00  0.00     0.120 A 
ATOM     20  C12 <0> d   1       0.324  20.428 -31.564  0.00  0.00     0.010 A 
ATOM     21  C11 <0> d   1      -0.209  19.745 -32.642  0.00  0.00    -0.090 A 
ATOM     22  C10 <0> d   1       0.608  18.949 -33.431  0.00  0.00     0.149 A 
ATOM     23  I2  <0> d   1      -2.250  19.915 -33.085  0.00  0.00     0.002 I 
ATOM     24  C9  <0> d   1       1.959  18.836 -33.138  0.00  0.00    -0.094 A 
ATOM     25  C8  <0> d   1       2.492  19.518 -32.060  0.00  0.00     0.084 A 
ATOM     26  I3  <0> d   1       3.193  17.633 -34.329  0.00  0.00     0.007 I 
BRANCH  22  27
ATOM     27  O2  <0> d   1       0.084  18.278 -34.492  0.00  0.00    -0.471 OA
ATOM     28  H6  <0> d   1      -0.826  17.978 -34.358  0.00  0.00     0.397 HD
ENDBRANCH  22  27
ENDBRANCH  18  19
ENDBRANCH   5  18
TORSDOF 7
ENDMDL
